REMARK  Name = 3rfm_3
REMARK  1 active torsions:
REMARK  status: ('A' for Active; 'I' for Inactive)
REMARK    1  A    between atoms: C_1  and  N_12
REMARK                            x       y       z     vdW  Elec       q    Type
REMARK                         _______ _______ _______ _____ _____    ______ ____
ROOT
ATOM      1  C   UNL     1       8.004 -32.665 -32.278  0.00  0.00    +0.000 C 
ATOM      2  S   UNL     1       8.795 -35.927 -35.258  0.00  0.00    +0.000 S 
ATOM      3  C   UNL     1       5.256 -33.816 -34.145  0.00  0.00    +0.000 A 
ATOM      4  O   UNL     1      10.298 -32.983 -31.716  0.00  0.00    +0.000 OA
ATOM      5  N   UNL     1       7.256 -34.263 -33.988  0.00  0.00    +0.000 N 
ATOM      6  C   UNL     1       9.347 -33.310 -32.423  0.00  0.00    +0.000 C 
ATOM      7  C   UNL     1       6.988 -33.272 -33.106  0.00  0.00    +0.000 A 
ATOM      8  N   UNL     1       6.166 -34.607 -34.661  0.00  0.00    +0.000 NA
ATOM      9  C   UNL     1       8.543 -34.804 -34.180  0.00  0.00    +0.000 C 
ATOM     10  N   UNL     1       9.485 -34.270 -33.373  0.00  0.00    +0.000 NA
ATOM     11  N   UNL     1       5.705 -32.993 -33.195  0.00  0.00    +0.000 NA
ENDROOT
BRANCH   1  14
ATOM     12  C   UNL     1       6.505 -30.989 -31.251  0.00  0.00    +0.000 C 
ATOM     13  C   UNL     1       8.458 -31.681 -30.020  0.00  0.00    +0.000 C 
ATOM     14  N   UNL     1       7.701 -31.819 -31.244  0.00  0.00    +0.000 NA
ENDBRANCH   1  14
TORSDOF 1
