cdk2_protein
     RDKit          3D

 24 27  0  0  0  0  0  0  0  0999 V2000
    1.5142   29.2258    6.8153 C   0  0  0  0  0  0  0  0  0  0  0  0
   -1.5897   32.0621    8.1186 C   0  0  0  0  0  0  0  0  0  0  0  0
   -0.6201   26.4927    8.8218 C   0  0  0  0  0  0  0  0  0  0  0  0
   -1.2775   25.7059    9.9528 C   0  0  0  0  0  0  0  0  0  0  0  0
   -1.4192   24.2342    9.4787 C   0  0  0  0  0  0  0  0  0  0  0  0
   -1.8736   23.3290   10.6075 C   0  0  0  0  0  0  0  0  0  0  0  0
   -0.9021   23.3810   11.8073 C   0  0  0  0  0  0  0  0  0  0  0  0
   -0.8995   24.8673   12.3184 C   0  0  0  0  0  0  0  0  0  0  0  0
   -0.3975   25.8005   11.2214 C   0  0  0  0  0  0  0  0  0  0  0  0
    4.6753   25.6483    5.5143 C   0  0  0  0  0  0  0  0  0  0  0  0
    4.7661   25.1063    6.7981 C   0  0  0  0  0  0  0  0  0  0  0  0
    4.1334   25.7526    7.8912 C   0  0  0  0  0  0  0  0  0  0  0  0
    3.4461   26.9691    7.6981 C   0  0  0  0  0  0  0  0  0  0  0  0
    0.7600   28.3061    7.4512 N   0  0  0  0  0  0  0  0  0  0  0  0
   -0.3620   28.7416    8.0710 C   0  0  0  0  0  0  0  0  0  0  0  0
   -1.1264   27.8339    8.8082 O   0  0  0  0  0  0  0  0  0  0  0  0
   -0.7649   30.0752    8.0307 C   0  0  0  0  0  0  0  0  0  0  0  0
   -1.8198   30.7837    8.5349 N   0  0  0  0  0  0  0  0  0  0  0  0
   -0.4464   32.1752    7.3604 N   0  0  0  0  0  0  0  0  0  0  0  0
    0.0984   30.9309    7.2965 C   0  0  0  0  0  0  0  0  0  0  0  0
    1.2512   30.5501    6.6920 N   0  0  0  0  0  0  0  0  0  0  0  0
    2.7078   28.7744    6.1984 N   0  0  0  0  0  0  0  0  0  0  0  0
    3.3418   27.5439    6.3992 C   0  0  0  0  0  0  0  0  0  0  0  0
    3.9974   26.8962    5.3134 C   0  0  0  0  0  0  0  0  0  0  0  0
  4  3  1  0
  5  4  1  0
  6  5  1  0
  7  6  1  0
  8  7  1  0
  9  4  1  0
  9  8  1  0
 11 10  2  0
 12 11  1  0
 13 12  1  0
 14  1  1  0
 15 14  2  0
 16  3  1  0
 16 15  1  0
 17 15  1  0
 18  2  2  0
 18 17  1  0
 19  2  1  0
 20 17  2  0
 20 19  1  0
 21  1  2  0
 21 20  1  0
 22  1  1  0
 23 13  1  0
 23 22  1  0
 24 10  1  0
 24 23  1  0
M  END
>  <pic50>  (1) 
6.106240272521973

>  <pki>  (1) 
6.144160270690918

>  <pkd>  (1) 
5.690156936645508

>  <pec50>  (1) 
6.239624500274658

$$$$
