REMARK  Name = 3rfm_9
REMARK  0 active torsions:
REMARK  status: ('A' for Active; 'I' for Inactive)
REMARK                            x       y       z     vdW  Elec       q    Type
REMARK                         _______ _______ _______ _____ _____    ______ ____
ROOT
ATOM      1  C   UNL     1       5.147 -33.386 -33.920  0.00  0.00    +0.000 A 
ATOM      2  C   UNL     1       7.375 -33.894 -33.584  0.00  0.00    +0.000 A 
ATOM      3  C   UNL     1       5.186 -32.424 -32.897  0.00  0.00    +0.000 A 
ATOM      4  O   UNL     1       8.835 -31.969 -30.938  0.00  0.00    +0.000 OA
ATOM      5  C   UNL     1       6.362 -32.196 -32.219  0.00  0.00    +0.000 A 
ATOM      6  O   UNL     1      10.676 -35.171 -33.566  0.00  0.00    +0.000 OA
ATOM      7  C   UNL     1       7.474 -32.940 -32.560  0.00  0.00    +0.000 A 
ATOM      8  C   UNL     1       9.696 -34.493 -33.262  0.00  0.00    +0.000 A 
ATOM      9  C   UNL     1       8.717 -32.768 -31.860  0.00  0.00    +0.000 A 
ATOM     10  C   UNL     1      11.079 -33.412 -31.550  0.00  0.00    +0.000 C 
ATOM     11  N   UNL     1       9.768 -33.559 -32.251  0.00  0.00    +0.000 N 
ATOM     12  N   UNL     1       6.213 -34.106 -34.254  0.00  0.00    +0.000 NA
ATOM     13  C   UNL     1       8.421 -35.635 -34.979  0.00  0.00    +0.000 C 
ATOM     14  N   UNL     1       8.498 -34.638 -33.903  0.00  0.00    +0.000 N 
ENDROOT
TORSDOF 0
