REMARK  Name = 3rfm_1
REMARK  0 active torsions:
REMARK  status: ('A' for Active; 'I' for Inactive)
REMARK                            x       y       z     vdW  Elec       q    Type
REMARK                         _______ _______ _______ _____ _____    ______ ____
ROOT
ATOM      1  N   UNL     1       8.562 -31.878 -30.780  0.00  0.00    +0.000 NA
ATOM      2  C   UNL     1       8.873 -35.509 -34.913  0.00  0.00    +0.000 C 
ATOM      3  C   UNL     1       8.781 -32.769 -31.736  0.00  0.00    +0.000 A 
ATOM      4  N   UNL     1       6.716 -32.188 -31.951  0.00  0.00    +0.000 N 
ATOM      5  C   UNL     1      11.162 -33.239 -31.206  0.00  0.00    +0.000 C 
ATOM      6  C   UNL     1       7.684 -32.992 -32.483  0.00  0.00    +0.000 A 
ATOM      7  C   UNL     1       7.293 -31.529 -30.929  0.00  0.00    +0.000 A 
ATOM      8  C   UNL     1       5.327 -32.039 -32.377  0.00  0.00    +0.000 C 
ATOM      9  N   UNL     1       9.952 -33.467 -32.030  0.00  0.00    +0.000 N 
ATOM     10  O   UNL     1       6.635 -34.100 -34.220  0.00  0.00    +0.000 OA
ATOM     11  C   UNL     1       7.647 -33.908 -33.564  0.00  0.00    +0.000 A 
ATOM     12  N   UNL     1       8.833 -34.542 -33.794  0.00  0.00    +0.000 N 
ATOM     13  O   UNL     1      11.015 -34.962 -33.339  0.00  0.00    +0.000 OA
ATOM     14  C   UNL     1      10.003 -34.368 -33.080  0.00  0.00    +0.000 A 
ENDROOT
TORSDOF 0
