3rfm_0
     RDKit          3D

 19 21  0  0  0  0  0  0  0  0999 V2000
    7.9434  -34.2555  -33.7449 N   0  0  0  0  0  0  0  0  0  0  0  0
    9.2312  -34.3507  -33.3333 C   0  0  0  0  0  0  0  0  0  0  0  0
    5.2628  -32.2394  -32.7729 C   0  0  0  0  0  0  0  0  0  0  0  0
    6.2968  -31.5425  -31.5893 S   0  0  0  0  0  0  0  0  0  0  0  0
    7.5300  -32.5934  -32.1813 C   0  0  0  0  0  0  0  0  0  0  0  0
    8.8543  -32.6696  -31.6689 C   0  0  0  0  0  0  0  0  0  0  0  0
    9.6825  -33.5590  -32.2990 N   0  0  0  0  0  0  0  0  0  0  0  0
    9.2274  -31.9937  -30.6994 O   0  0  0  0  0  0  0  0  0  0  0  0
    5.7758  -33.1919  -33.5520 N   0  0  0  0  0  0  0  0  0  0  0  0
    9.8532  -35.2544  -34.0299 N   0  0  0  0  0  0  0  0  0  0  0  0
   11.0892  -33.6750  -31.8498 C   0  0  0  0  0  0  0  0  0  0  0  0
    8.9157  -35.6919  -34.8772 C   0  0  0  0  0  0  0  0  0  0  0  0
    7.7182  -35.1224  -34.7447 N   0  0  0  0  0  0  0  0  0  0  0  0
    7.0683  -33.3760  -33.1946 C   0  0  0  0  0  0  0  0  0  0  0  0
    4.2185  -31.9120  -32.8832 H   0  0  0  0  0  0  0  0  0  0  0  0
   11.1240  -33.6779  -30.7504 H   0  0  0  0  0  0  0  0  0  0  0  0
   11.5204  -34.6118  -32.2328 H   0  0  0  0  0  0  0  0  0  0  0  0
   11.6680  -32.8215  -32.2328 H   0  0  0  0  0  0  0  0  0  0  0  0
    9.1187  -36.4674  -35.6306 H   0  0  0  0  0  0  0  0  0  0  0  0
  2  1  1  0
  4  3  1  0
  5  4  1  0
  6  5  1  0
  7  2  1  0
  7  6  1  0
  8  6  2  0
  9  3  2  0
 10  2  2  0
 11  7  1  0
 12 10  1  0
 13  1  1  0
 13 12  2  0
 14  1  1  0
 14  5  2  0
 14  9  1  0
  3 15  1  0
 11 16  1  0
 11 17  1  0
 11 18  1  0
 12 19  1  0
M  END
>  <pic50>  (1) 
3.815859794616699

>  <pki>  (1) 
4.423621654510498

>  <pkd>  (1) 
4.010909557342529

>  <pec50>  (1) 
5.0624799728393555

$$$$
