REMARK  Name = 3rfm_5
REMARK  0 active torsions:
REMARK  status: ('A' for Active; 'I' for Inactive)
REMARK                            x       y       z     vdW  Elec       q    Type
REMARK                         _______ _______ _______ _____ _____    ______ ____
ROOT
ATOM      1  O   UNL     1      10.658 -34.981 -33.468  0.00  0.00    +0.000 OA
ATOM      2  C   UNL     1       7.474 -32.723 -32.321  0.00  0.00    +0.000 A 
ATOM      3  C   UNL     1       9.688 -34.282 -33.091  0.00  0.00    +0.000 A 
ATOM      4  N   UNL     1       6.615 -31.868 -31.749  0.00  0.00    +0.000 NA
ATOM      5  C   UNL     1       8.109 -35.164 -34.751  0.00  0.00    +0.000 A 
ATOM      6  N   UNL     1       7.349 -31.277 -30.759  0.00  0.00    +0.000 NA
ATOM      7  N   UNL     1       8.452 -34.354 -33.713  0.00  0.00    +0.000 N 
ATOM      8  N   UNL     1       9.761 -33.407 -32.035  0.00  0.00    +0.000 N 
ATOM      9  C   UNL     1       8.675 -32.628 -31.655  0.00  0.00    +0.000 A 
ATOM     10  N   UNL     1       8.615 -31.761 -30.684  0.00  0.00    +0.000 NA
ATOM     11  C   UNL     1      11.030 -33.301 -31.283  0.00  0.00    +0.000 C 
ATOM     12  C   UNL     1       6.781 -34.886 -34.996  0.00  0.00    +0.000 A 
ATOM     13  C   UNL     1       7.372 -33.624 -33.372  0.00  0.00    +0.000 A 
ATOM     14  N   UNL     1       6.342 -33.917 -34.147  0.00  0.00    +0.000 NA
ENDROOT
TORSDOF 0
