cdk2_protein_0
     RDKit          3D

 24 27  0  0  0  0  0  0  0  0999 V2000
    3.5584   27.3135    6.6083 C   0  0  0  0  0  0  0  0  0  0  0  0
    4.8736   25.4915    5.7013 C   0  0  0  0  0  0  0  0  0  0  0  0
   -1.1631   27.5012    8.5631 O   0  0  0  0  0  0  0  0  0  0  0  0
   -0.3533   31.8958    7.3293 N   0  0  0  0  0  0  0  0  0  0  0  0
    0.2827   24.8804   10.5736 N   0  0  0  0  0  0  0  0  0  0  0  0
    3.5982   26.7104    7.8767 C   0  0  0  0  0  0  0  0  0  0  0  0
    4.2239   26.7193    5.5236 C   0  0  0  0  0  0  0  0  0  0  0  0
    4.2617   25.4903    8.0417 C   0  0  0  0  0  0  0  0  0  0  0  0
   -2.0643   23.7121   11.8738 O   0  0  0  0  0  0  0  0  0  0  0  0
    1.6679   28.9468    6.9078 C   0  0  0  0  0  0  0  0  0  0  0  0
    0.2167   30.6464    7.2805 C   0  0  0  0  0  0  0  0  0  0  0  0
   -0.7501   24.1015    9.8583 C   0  0  0  0  0  0  0  0  0  0  0  0
   -0.7029   29.7698    7.8844 C   0  0  0  0  0  0  0  0  0  0  0  0
   -0.5964   26.2167    8.8263 C   0  0  0  0  0  0  0  0  0  0  0  0
    0.8697   28.0286    7.4470 N   0  0  0  0  0  0  0  0  0  0  0  0
   -0.3242   28.4348    7.9634 C   0  0  0  0  0  0  0  0  0  0  0  0
    1.4220   30.2674    6.7841 N   0  0  0  0  0  0  0  0  0  0  0  0
   -1.6027   25.1671    9.1846 C   0  0  0  0  0  0  0  0  0  0  0  0
    4.9046   24.8870    6.9582 C   0  0  0  0  0  0  0  0  0  0  0  0
   -1.5614   31.7498    7.9819 C   0  0  0  0  0  0  0  0  0  0  0  0
   -1.8246   30.4886    8.3119 N   0  0  0  0  0  0  0  0  0  0  0  0
    0.2913   26.2558   10.0967 C   0  0  0  0  0  0  0  0  0  0  0  0
   -1.5038   23.0883   10.7314 C   0  0  0  0  0  0  0  0  0  0  0  0
    2.9127   28.5266    6.4035 N   0  0  0  0  0  0  0  0  0  0  0  0
  6  1  2  0
  7  1  1  0
  7  2  2  0
  8  6  1  0
 11  4  1  0
 12  5  1  0
 13 11  2  0
 14  3  1  0
 15 10  1  0
 16  3  1  0
 16 13  1  0
 16 15  2  0
 17 10  2  0
 17 11  1  0
 18 12  1  0
 18 14  1  0
 19  2  1  0
 19  8  2  0
 20  4  1  0
 21 13  1  0
 21 20  2  0
 22  5  1  0
 22 14  1  0
 23  9  1  0
 23 12  1  0
 24  1  1  0
 24 10  1  0
M  END
>  <pic50>  (1) 
6.536422252655029

>  <pki>  (1) 
7.114933967590332

>  <pkd>  (1) 
5.989837169647217

>  <pec50>  (1) 
6.058509349822998

$$$$
cdk2_protein_1
     RDKit          3D

 23 25  0  0  0  0  0  0  0  0999 V2000
    0.2743   31.0880    7.0858 C   0  0  0  0  0  0  0  0  0  0  0  0
    4.1270   26.7312    5.7414 C   0  0  0  0  0  0  0  0  0  0  0  0
   -0.3641   25.8873   11.5433 C   0  0  0  0  0  0  0  0  0  0  0  0
    3.8562   25.6337    8.2998 C   0  0  0  0  0  0  0  0  0  0  0  0
    1.3854   30.4818    6.5859 N   0  0  0  0  0  0  0  0  0  0  0  0
   -0.6825   30.3850    7.8145 C   0  0  0  0  0  0  0  0  0  0  0  0
    4.6620   24.9980    7.3542 C   0  0  0  0  0  0  0  0  0  0  0  0
   -1.4168   28.2868    8.7521 N   0  0  0  0  0  0  0  0  0  0  0  0
    0.6196   28.3992    7.5137 N   0  0  0  0  0  0  0  0  0  0  0  0
   -1.2585   27.0480    9.4854 C   0  0  0  0  0  0  0  0  0  0  0  0
    0.0092   24.6805   10.6829 C   0  0  0  0  0  0  0  0  0  0  0  0
   -2.7970   31.5587    8.7800 N   0  0  0  0  0  0  0  0  0  0  0  0
    4.7891   25.5497    6.0721 C   0  0  0  0  0  0  0  0  0  0  0  0
    3.1860   26.8071    7.9746 C   0  0  0  0  0  0  0  0  0  0  0  0
    2.6535   28.5412    6.3205 N   0  0  0  0  0  0  0  0  0  0  0  0
   -0.3237   27.1797   10.6978 C   0  0  0  0  0  0  0  0  0  0  0  0
   -1.8773   31.0742    8.3483 C   0  0  0  0  0  0  0  0  0  0  0  0
   -0.1055   23.5055   11.4330 O   0  0  0  0  0  0  0  0  0  0  0  0
   -0.8186   25.8717    8.6024 C   0  0  0  0  0  0  0  0  0  0  0  0
    3.2963   27.3587    6.6882 C   0  0  0  0  0  0  0  0  0  0  0  0
   -0.4726   29.0087    8.0307 C   0  0  0  0  0  0  0  0  0  0  0  0
    1.5059   29.1565    6.8313 C   0  0  0  0  0  0  0  0  0  0  0  0
   -0.8390   24.5602    9.4194 C   0  0  0  0  0  0  0  0  0  0  0  0
  5  1  2  0
  6  1  1  0
  7  4  2  0
 10  8  1  0
 11  3  1  0
 13  2  2  0
 13  7  1  0
 14  4  1  0
 16  3  1  0
 16 10  1  0
 17  6  1  0
 17 12  3  0
 18 11  1  0
 19 10  1  0
 20  2  1  0
 20 14  2  0
 20 15  1  0
 21  6  2  0
 21  8  1  0
 21  9  1  0
 22  5  1  0
 22  9  2  0
 22 15  1  0
 23 11  1  0
 23 19  1  0
M  END
>  <pic50>  (2) 
7.1084208488464355

>  <pki>  (2) 
6.441791534423828

>  <pkd>  (2) 
6.536077499389648

>  <pec50>  (2) 
6.70233154296875

$$$$
cdk2_protein_2
     RDKit          3D

 23 25  0  0  0  0  0  0  0  0999 V2000
    3.4586   27.3501    6.5679 C   0  0  0  0  0  0  0  0  0  0  0  0
   -0.3491   28.8532    7.8843 C   0  0  0  0  0  0  0  0  0  0  0  0
   -1.8762   24.0734   11.3313 C   0  0  0  0  0  0  0  0  0  0  0  0
    2.8443   28.5641    6.2745 N   0  0  0  0  0  0  0  0  0  0  0  0
    4.8117   25.4865    5.8345 C   0  0  0  0  0  0  0  0  0  0  0  0
    4.7803   24.9465    7.1263 C   0  0  0  0  0  0  0  0  0  0  0  0
   -1.6146   24.7274   12.4886 N   0  0  0  0  0  0  0  0  0  0  0  0
   -1.8030   30.8401    8.3045 C   0  0  0  0  0  0  0  0  0  0  0  0
    4.0838   25.6075    8.1418 C   0  0  0  0  0  0  0  0  0  0  0  0
   -0.8951   26.6280   11.1587 C   0  0  0  0  0  0  0  0  0  0  0  0
    0.3654   31.0034    7.0980 C   0  0  0  0  0  0  0  0  0  0  0  0
   -1.1841   25.9394    9.9679 C   0  0  0  0  0  0  0  0  0  0  0  0
   -1.2259   27.9782    8.5460 N   0  0  0  0  0  0  0  0  0  0  0  0
    1.6656   29.1271    6.7683 C   0  0  0  0  0  0  0  0  0  0  0  0
   -0.5984   30.2251    7.7658 C   0  0  0  0  0  0  0  0  0  0  0  0
   -1.1310   26.0022   12.3916 C   0  0  0  0  0  0  0  0  0  0  0  0
   -2.7573   31.3028    8.7338 N   0  0  0  0  0  0  0  0  0  0  0  0
    0.7898   28.3141    7.3601 N   0  0  0  0  0  0  0  0  0  0  0  0
   -1.6702   24.6345   10.0604 C   0  0  0  0  0  0  0  0  0  0  0  0
    3.4319   26.8104    7.8716 C   0  0  0  0  0  0  0  0  0  0  0  0
    1.5059   30.4594    6.5982 N   0  0  0  0  0  0  0  0  0  0  0  0
    4.1703   26.6976    5.5623 C   0  0  0  0  0  0  0  0  0  0  0  0
   -0.9177   26.5539    8.6224 C   0  0  0  0  0  0  0  0  0  0  0  0
  4  1  1  0
  6  5  2  0
  7  3  2  0
  9  6  1  0
 12 10  1  0
 13  2  1  0
 14  4  1  0
 15  2  1  0
 15  8  1  0
 15 11  2  0
 16  7  1  0
 16 10  2  0
 17  8  3  0
 18  2  2  0
 18 14  1  0
 19  3  1  0
 19 12  2  0
 20  1  1  0
 20  9  2  0
 21 11  1  0
 21 14  2  0
 22  1  2  0
 22  5  1  0
 23 12  1  0
 23 13  1  0
M  END
>  <pic50>  (3) 
6.086932182312012

>  <pki>  (3) 
5.927984237670898

>  <pkd>  (3) 
5.388818740844727

>  <pec50>  (3) 
6.294188499450684

$$$$
cdk2_protein_3
     RDKit          3D

 27 30  0  0  0  0  0  0  0  0999 V2000
    1.6747   28.6077    7.0517 C   0  0  0  0  0  0  0  0  0  0  0  0
    1.2619   29.8744    6.9725 N   0  0  0  0  0  0  0  0  0  0  0  0
    0.9839   27.5888    7.5925 N   0  0  0  0  0  0  0  0  0  0  0  0
   -2.0151   29.4883    8.6753 C   0  0  0  0  0  0  0  0  0  0  0  0
   -1.1971   24.0635   11.2772 C   0  0  0  0  0  0  0  0  0  0  0  0
   -0.7556   29.1456    8.1243 C   0  0  0  0  0  0  0  0  0  0  0  0
   -0.2116   27.8366    8.1324 C   0  0  0  0  0  0  0  0  0  0  0  0
   -1.6877   31.7974    8.0296 C   0  0  0  0  0  0  0  0  0  0  0  0
    4.9653   25.4033    5.5678 C   0  0  0  0  0  0  0  0  0  0  0  0
    4.5603   25.3410    7.9469 C   0  0  0  0  0  0  0  0  0  0  0  0
   -0.4299   31.4817    7.4817 C   0  0  0  0  0  0  0  0  0  0  0  0
   -1.8783   23.9450   12.5161 O   0  0  0  0  0  0  0  0  0  0  0  0
    0.5795   25.2974    9.9992 C   0  0  0  0  0  0  0  0  0  0  0  0
   -1.4860   24.3731    8.7927 C   0  0  0  0  0  0  0  0  0  0  0  0
   -2.1958   24.2848   10.1411 C   0  0  0  0  0  0  0  0  0  0  0  0
   -0.9366   26.7780    8.7285 N   0  0  0  0  0  0  0  0  0  0  0  0
   -2.4678   30.8125    8.6193 C   0  0  0  0  0  0  0  0  0  0  0  0
   -0.3662   25.4152    8.7881 C   0  0  0  0  0  0  0  0  0  0  0  0
    4.1140   27.2038    4.2636 F   0  0  0  0  0  0  0  0  0  0  0  0
    3.8441   26.5445    7.8644 C   0  0  0  0  0  0  0  0  0  0  0  0
    4.2544   26.5891    5.4772 C   0  0  0  0  0  0  0  0  0  0  0  0
    5.8055   23.5870    6.8688 O   0  0  0  0  0  0  0  0  0  0  0  0
    0.0449   30.1475    7.5224 C   0  0  0  0  0  0  0  0  0  0  0  0
   -0.1920   25.2249   11.3299 C   0  0  0  0  0  0  0  0  0  0  0  0
    3.6870   27.1504    6.6174 C   0  0  0  0  0  0  0  0  0  0  0  0
    5.1042   24.7844    6.8016 C   0  0  0  0  0  0  0  0  0  0  0  0
    2.9436   28.3419    6.5061 N   0  0  0  0  0  0  0  0  0  0  0  0
  2  1  2  0
  3  1  1  0
  6  4  1  0
  7  3  2  0
  7  6  1  0
 11  8  2  0
 12  5  1  0
 15  5  1  0
 15 14  1  0
 16  7  1  0
 17  4  2  0
 17  8  1  0
 18 13  1  0
 18 14  1  0
 18 16  1  0
 20 10  1  0
 21  9  2  0
 21 19  1  0
 23  2  1  0
 23  6  2  0
 23 11  1  0
 24  5  1  0
 24 13  1  0
 25 20  2  0
 25 21  1  0
 26  9  1  0
 26 10  2  0
 26 22  1  0
 27  1  1  0
 27 25  1  0
M  END
>  <pic50>  (4) 
6.330141067504883

>  <pki>  (4) 
6.564120292663574

>  <pkd>  (4) 
5.804593563079834

>  <pec50>  (4) 
6.284119129180908

$$$$
cdk2_protein_4
     RDKit          3D

 26 29  0  0  0  0  0  0  0  0999 V2000
    2.8712   28.5833    6.3307 N   0  0  0  0  0  0  0  0  0  0  0  0
   -0.6481   26.0369   11.1392 C   0  0  0  0  0  0  0  0  0  0  0  0
    4.1995   26.7851    5.4261 C   0  0  0  0  0  0  0  0  0  0  0  0
   -1.3401   25.5169    9.8407 C   0  0  0  0  0  0  0  0  0  0  0  0
    3.5769   26.7531    7.7698 C   0  0  0  0  0  0  0  0  0  0  0  0
   -1.4933   21.8576   10.8231 O   0  0  0  0  0  0  0  0  0  0  0  0
   -1.6996   23.2548   10.9657 C   0  0  0  0  0  0  0  0  0  0  0  0
   -1.5476   31.8230    7.9867 C   0  0  0  0  0  0  0  0  0  0  0  0
    0.8583   28.0969    7.4320 N   0  0  0  0  0  0  0  0  0  0  0  0
   -1.1478   27.5953    8.6171 O   0  0  0  0  0  0  0  0  0  0  0  0
   -0.3568   31.9571    7.3103 N   0  0  0  0  0  0  0  0  0  0  0  0
   -0.3205   28.5038    7.9695 C   0  0  0  0  0  0  0  0  0  0  0  0
    4.2951   25.5573    7.9307 C   0  0  0  0  0  0  0  0  0  0  0  0
    1.6412   29.0083    6.8633 C   0  0  0  0  0  0  0  0  0  0  0  0
    3.5335   27.3602    6.5152 C   0  0  0  0  0  0  0  0  0  0  0  0
    4.8864   25.5875    5.5892 C   0  0  0  0  0  0  0  0  0  0  0  0
    0.2057   30.7098    7.2550 C   0  0  0  0  0  0  0  0  0  0  0  0
   -0.7517   26.2166    8.6097 C   0  0  0  0  0  0  0  0  0  0  0  0
    1.3910   30.3315    6.7289 N   0  0  0  0  0  0  0  0  0  0  0  0
    4.9360   24.9904    6.8449 C   0  0  0  0  0  0  0  0  0  0  0  0
   -0.9870   23.7451   12.2327 C   0  0  0  0  0  0  0  0  0  0  0  0
   -1.7982   30.5689    8.3465 N   0  0  0  0  0  0  0  0  0  0  0  0
   -0.6993   29.8471    7.9027 C   0  0  0  0  0  0  0  0  0  0  0  0
   -1.1696   23.9814    9.7218 C   0  0  0  0  0  0  0  0  0  0  0  0
   -1.1704   25.2860   12.3751 C   0  0  0  0  0  0  0  0  0  0  0  0
    5.6410   23.8185    6.9858 O   0  0  0  0  0  0  0  0  0  0  0  0
  4  2  1  0
  7  6  1  0
 11  8  1  0
 12  9  1  0
 12 10  1  0
 13  5  2  0
 14  1  1  0
 14  9  2  0
 15  1  1  0
 15  3  2  0
 15  5  1  0
 16  3  1  0
 17 11  1  0
 18  4  1  0
 18 10  1  0
 19 14  1  0
 19 17  2  0
 20 13  1  0
 20 16  2  0
 21  7  1  0
 22  8  2  0
 23 12  2  0
 23 17  1  0
 23 22  1  0
 24  4  1  0
 24  7  1  0
 25  2  1  0
 25 21  1  0
 26 20  1  0
M  END
>  <pic50>  (5) 
7.157864570617676

>  <pki>  (5) 
6.329681396484375

>  <pkd>  (5) 
5.893040180206299

>  <pec50>  (5) 
6.444296360015869

$$$$
