ptp1b_protein_0
     RDKit          3D

 44 45  0  0  0  0  0  0  0  0999 V2000
   42.1048   13.7149   14.0736 C   0  0  0  0  0  0  0  0  0  0  0  0
   42.8580    9.0329   17.9421 C   0  0  0  0  0  0  0  0  0  0  0  0
   40.8501   10.3077   16.4852 C   0  0  0  0  0  0  0  0  0  0  0  0
   41.3470   17.2896   11.7251 O   0  0  0  0  0  0  0  0  0  0  0  0
   38.9866    8.3161   16.8596 S   0  0  0  0  0  0  0  0  0  0  0  0
   44.0728   15.4567   18.1294 O   0  0  0  0  0  0  0  0  0  0  0  0
   44.0506   15.5861   16.8875 C   0  0  0  0  0  0  0  0  0  0  0  0
   43.0901   13.2544   16.6519 C   0  0  0  0  0  0  0  0  0  0  0  0
   38.0012    9.2321   17.4616 O   0  0  0  0  0  0  0  0  0  0  0  0
   42.8575   14.7250   14.7325 C   0  0  0  0  0  0  0  0  0  0  0  0
   40.4850   17.2970   12.6540 C   0  0  0  0  0  0  0  0  0  0  0  0
   39.7003    7.5568   14.3198 C   0  0  0  0  0  0  0  0  0  0  0  0
   44.6555   16.5175   16.3238 O   0  0  0  0  0  0  0  0  0  0  0  0
   42.1157   10.9226   16.6198 C   0  0  0  0  0  0  0  0  0  0  0  0
   41.8890   12.4984   14.7004 C   0  0  0  0  0  0  0  0  0  0  0  0
   42.3731   12.2403   15.9905 C   0  0  0  0  0  0  0  0  0  0  0  0
   43.1274   15.9006   14.0630 O   0  0  0  0  0  0  0  0  0  0  0  0
   38.6951    8.3212   15.1153 N   0  0  0  0  0  0  0  0  0  0  0  0
   43.1079   10.2583   17.3361 C   0  0  0  0  0  0  0  0  0  0  0  0
   40.8372   16.8062   14.0788 C   0  0  0  0  0  0  0  0  0  0  0  0
   43.3355   14.5233   16.0753 C   0  0  0  0  0  0  0  0  0  0  0  0
   40.5952    9.0631   17.0759 C   0  0  0  0  0  0  0  0  0  0  0  0
   39.0718    6.9266   17.3116 O   0  0  0  0  0  0  0  0  0  0  0  0
   41.5574   13.9048   12.6537 C   0  0  0  0  0  0  0  0  0  0  0  0
   39.3045   17.6217   12.4745 O   0  0  0  0  0  0  0  0  0  0  0  0
   41.5978    8.4323   17.8221 C   0  0  0  0  0  0  0  0  0  0  0  0
   42.2930   17.0038   14.4550 C   0  0  0  0  0  0  0  0  0  0  0  0
   43.6514    8.5333   18.5173 H   0  0  0  0  0  0  0  0  0  0  0  0
   40.0580   10.8109   15.9114 H   0  0  0  0  0  0  0  0  0  0  0  0
   43.4769   13.0521   17.6616 H   0  0  0  0  0  0  0  0  0  0  0  0
   40.3872    7.0344   15.0019 H   0  0  0  0  0  0  0  0  0  0  0  0
   39.1835    6.8214   13.6856 H   0  0  0  0  0  0  0  0  0  0  0  0
   40.2709    8.2512   13.6856 H   0  0  0  0  0  0  0  0  0  0  0  0
   41.3239   11.7158   14.1729 H   0  0  0  0  0  0  0  0  0  0  0  0
   37.7670    7.9094   14.9426 H   0  0  0  0  0  0  0  0  0  0  0  0
   44.1065   10.7111   17.4237 H   0  0  0  0  0  0  0  0  0  0  0  0
   40.2154   17.3584   14.7988 H   0  0  0  0  0  0  0  0  0  0  0  0
   40.6465   15.7230   14.0993 H   0  0  0  0  0  0  0  0  0  0  0  0
   40.5194   14.2651   12.7061 H   0  0  0  0  0  0  0  0  0  0  0  0
   42.1745   14.6413   12.1183 H   0  0  0  0  0  0  0  0  0  0  0  0
   41.5856   12.9443   12.1183 H   0  0  0  0  0  0  0  0  0  0  0  0
   41.3969    7.4684   18.3126 H   0  0  0  0  0  0  0  0  0  0  0  0
   42.3602   17.1241   15.5464 H   0  0  0  0  0  0  0  0  0  0  0  0
   42.6534   17.8958   13.9217 H   0  0  0  0  0  0  0  0  0  0  0  0
  7  6  1  0
  9  5  2  0
 10  1  2  0
 11  4  1  0
 13  7  2  0
 14  3  2  0
 15  1  1  0
 16  8  1  0
 16 14  1  0
 16 15  2  0
 17 10  1  0
 18  5  1  0
 18 12  1  0
 19  2  2  0
 19 14  1  0
 20 11  1  0
 21  7  1  0
 21  8  2  0
 21 10  1  0
 22  3  1  0
 22  5  1  0
 23  5  2  0
 24  1  1  0
 25 11  2  0
 26  2  1  0
 26 22  2  0
 27 17  1  0
 27 20  1  0
  2 28  1  0
  3 29  1  0
  8 30  1  0
 12 31  1  0
 12 32  1  0
 12 33  1  0
 15 34  1  0
 18 35  1  0
 19 36  1  0
 20 37  1  0
 20 38  1  0
 24 39  1  0
 24 40  1  0
 24 41  1  0
 26 42  1  0
 27 43  1  0
 27 44  1  0
M  CHG  2   4  -1   6  -1
M  END
>  <pic50>  (1) 
5.097618103027344

>  <pki>  (1) 
5.421841144561768

>  <pkd>  (1) 
5.373544216156006

>  <pec50>  (1) 
6.118800163269043

$$$$
ptp1b_protein_1
     RDKit          3D

 40 42  0  0  0  0  0  0  0  0999 V2000
   42.6626   15.3239   15.2534 C   0  0  0  0  0  0  0  0  0  0  0  0
   38.5488    3.7944   12.9402 C   0  0  0  0  0  0  0  0  0  0  0  0
   41.2023    9.8193   15.9261 C   0  0  0  0  0  0  0  0  0  0  0  0
   41.7245   11.2020   15.7362 C   0  0  0  0  0  0  0  0  0  0  0  0
   44.0263   17.2763   15.3857 O   0  0  0  0  0  0  0  0  0  0  0  0
   41.2912   17.1697   13.9844 C   0  0  0  0  0  0  0  0  0  0  0  0
   41.7717    9.0375   16.6894 O   0  0  0  0  0  0  0  0  0  0  0  0
   41.2064   11.9752   14.6819 C   0  0  0  0  0  0  0  0  0  0  0  0
   42.5304   13.8870   15.4893 C   0  0  0  0  0  0  0  0  0  0  0  0
   37.8328    7.0595   13.6249 C   0  0  0  0  0  0  0  0  0  0  0  0
   39.9945    7.0448   15.3990 C   0  0  0  0  0  0  0  0  0  0  0  0
   39.3837   17.5933   12.6110 O   0  0  0  0  0  0  0  0  0  0  0  0
   43.1290   13.0719   16.4498 C   0  0  0  0  0  0  0  0  0  0  0  0
   44.0297   15.9647   17.1162 O   0  0  0  0  0  0  0  0  0  0  0  0
   41.3188   17.2430   11.5914 O   0  0  0  0  0  0  0  0  0  0  0  0
   42.7026   11.7413   16.5711 C   0  0  0  0  0  0  0  0  0  0  0  0
   43.6421   16.2228   15.9697 C   0  0  0  0  0  0  0  0  0  0  0  0
   39.4081    5.8322   15.0033 C   0  0  0  0  0  0  0  0  0  0  0  0
   40.0961    9.5197   15.1845 N   0  0  0  0  0  0  0  0  0  0  0  0
   41.5972   13.3044   14.5916 C   0  0  0  0  0  0  0  0  0  0  0  0
   41.7461   15.7523   14.2698 C   0  0  0  0  0  0  0  0  0  0  0  0
   40.9547   14.4220   13.4283 S   0  0  0  0  0  0  0  0  0  0  0  0
   38.3467    5.8313   14.1103 C   0  0  0  0  0  0  0  0  0  0  0  0
   40.6063   17.3790   12.6176 C   0  0  0  0  0  0  0  0  0  0  0  0
   37.7645    4.6678   13.6727 O   0  0  0  0  0  0  0  0  0  0  0  0
   39.5167    8.2570   14.8926 C   0  0  0  0  0  0  0  0  0  0  0  0
   38.4253    8.2693   14.0052 C   0  0  0  0  0  0  0  0  0  0  0  0
   39.1235    3.1545   13.6260 H   0  0  0  0  0  0  0  0  0  0  0  0
   37.9050    3.1671   12.3062 H   0  0  0  0  0  0  0  0  0  0  0  0
   39.2415    4.3673   12.3062 H   0  0  0  0  0  0  0  0  0  0  0  0
   40.5792   17.4629   14.7700 H   0  0  0  0  0  0  0  0  0  0  0  0
   42.2034   17.7842   13.9653 H   0  0  0  0  0  0  0  0  0  0  0  0
   40.5111   11.5392   13.9494 H   0  0  0  0  0  0  0  0  0  0  0  0
   36.9661    7.0622   12.9475 H   0  0  0  0  0  0  0  0  0  0  0  0
   40.8334    7.0410   16.1105 H   0  0  0  0  0  0  0  0  0  0  0  0
   43.9226   13.4661   17.1015 H   0  0  0  0  0  0  0  0  0  0  0  0
   43.1526   11.1048   17.3472 H   0  0  0  0  0  0  0  0  0  0  0  0
   39.7910    4.8812   15.4021 H   0  0  0  0  0  0  0  0  0  0  0  0
   39.6093   10.3304   14.7761 H   0  0  0  0  0  0  0  0  0  0  0  0
   38.0404    9.2223   13.6133 H   0  0  0  0  0  0  0  0  0  0  0  0
  4  3  1  0
  7  3  2  0
  8  4  1  0
  9  1  1  0
 13  9  2  0
 16  4  2  0
 16 13  1  0
 17  1  1  0
 17  5  1  0
 17 14  2  0
 18 11  2  0
 19  3  1  0
 20  8  2  0
 20  9  1  0
 21  1  2  0
 21  6  1  0
 22 20  1  0
 22 21  1  0
 23 10  2  0
 23 18  1  0
 24  6  1  0
 24 12  1  0
 24 15  2  0
 25  2  1  0
 25 23  1  0
 26 11  1  0
 26 19  1  0
 27 10  1  0
 27 26  2  0
  2 28  1  0
  2 29  1  0
  2 30  1  0
  6 31  1  0
  6 32  1  0
  8 33  1  0
 10 34  1  0
 11 35  1  0
 13 36  1  0
 16 37  1  0
 18 38  1  0
 19 39  1  0
 27 40  1  0
M  CHG  2   5  -1  12  -1
M  END
>  <pic50>  (2) 
5.508810043334961

>  <pki>  (2) 
5.644373893737793

>  <pkd>  (2) 
5.08778715133667

>  <pec50>  (2) 
6.2135910987854

$$$$
ptp1b_protein_2
     RDKit          3D

 36 38  0  0  0  0  0  0  0  0999 V2000
   42.7802   15.2577   14.7224 C   0  0  0  0  0  0  0  0  0  0  0  0
   42.1666   14.0346   14.3529 C   0  0  0  0  0  0  0  0  0  0  0  0
   37.8793    7.9435   15.2671 C   0  0  0  0  0  0  0  0  0  0  0  0
   42.1415   14.1917   11.9864 O   0  0  0  0  0  0  0  0  0  0  0  0
   43.6526   14.3240   16.7799 C   0  0  0  0  0  0  0  0  0  0  0  0
   44.1626   16.5349   16.1900 O   0  0  0  0  0  0  0  0  0  0  0  0
   40.3278    8.9057   16.1838 C   0  0  0  0  0  0  0  0  0  0  0  0
   40.7189   17.3022   12.7126 C   0  0  0  0  0  0  0  0  0  0  0  0
   42.4810    8.6502   17.1746 O   0  0  0  0  0  0  0  0  0  0  0  0
   42.0182   10.8270   16.3350 C   0  0  0  0  0  0  0  0  0  0  0  0
   41.4328   17.2881   11.6786 O   0  0  0  0  0  0  0  0  0  0  0  0
   39.1296    9.5876   16.5076 C   0  0  0  0  0  0  0  0  0  0  0  0
   41.6828   11.6195   15.2511 C   0  0  0  0  0  0  0  0  0  0  0  0
   41.5221   13.8433   13.0137 C   0  0  0  0  0  0  0  0  0  0  0  0
   41.3861   17.0450   14.0671 C   0  0  0  0  0  0  0  0  0  0  0  0
   41.6888    9.4070   16.6298 C   0  0  0  0  0  0  0  0  0  0  0  0
   39.4950   17.5814   12.6922 O   0  0  0  0  0  0  0  0  0  0  0  0
   43.0288   13.1183   16.4818 C   0  0  0  0  0  0  0  0  0  0  0  0
   40.2815    7.7311   15.4426 C   0  0  0  0  0  0  0  0  0  0  0  0
   42.2590   12.9476   15.3080 C   0  0  0  0  0  0  0  0  0  0  0  0
   42.6577   16.3781   13.9392 O   0  0  0  0  0  0  0  0  0  0  0  0
   39.0499    7.2511   14.9668 C   0  0  0  0  0  0  0  0  0  0  0  0
   37.9059    9.0652   16.0871 C   0  0  0  0  0  0  0  0  0  0  0  0
   39.1213   10.7193   17.2481 O   0  0  0  0  0  0  0  0  0  0  0  0
   40.3827   13.3073   13.0000 O   0  0  0  0  0  0  0  0  0  0  0  0
   43.0696   11.6656   17.4398 S   0  0  0  0  0  0  0  0  0  0  0  0
   43.5342   15.3972   15.8937 C   0  0  0  0  0  0  0  0  0  0  0  0
   36.9218    7.5981   14.8500 H   0  0  0  0  0  0  0  0  0  0  0  0
   44.2351   14.4323   17.7067 H   0  0  0  0  0  0  0  0  0  0  0  0
   41.0412   11.2747   14.4268 H   0  0  0  0  0  0  0  0  0  0  0  0
   41.5431   18.0097   14.5717 H   0  0  0  0  0  0  0  0  0  0  0  0
   40.7215   16.3880   14.6473 H   0  0  0  0  0  0  0  0  0  0  0  0
   41.2079    7.1780   15.2287 H   0  0  0  0  0  0  0  0  0  0  0  0
   39.0103    6.3340   14.3607 H   0  0  0  0  0  0  0  0  0  0  0  0
   36.9654    9.5398   16.4037 H   0  0  0  0  0  0  0  0  0  0  0  0
   38.2641   11.1693   17.4550 H   0  0  0  0  0  0  0  0  0  0  0  0
  2  1  2  0
 11  8  1  0
 12  7  1  0
 13 10  2  0
 14  2  1  0
 14  4  2  0
 15  8  1  0
 16  7  1  0
 16  9  2  0
 16 10  1  0
 17  8  2  0
 18  5  1  0
 19  7  2  0
 20  2  1  0
 20 13  1  0
 20 18  2  0
 21  1  1  0
 21 15  1  0
 22  3  2  0
 22 19  1  0
 23  3  1  0
 23 12  2  0
 24 12  1  0
 25 14  1  0
 26 10  1  0
 26 18  1  0
 27  1  1  0
 27  5  2  0
 27  6  1  0
  3 28  1  0
  5 29  1  0
 13 30  1  0
 15 31  1  0
 15 32  1  0
 19 33  1  0
 22 34  1  0
 23 35  1  0
 24 36  1  0
M  CHG  3   6  -1  11  -1  25  -1
M  END
>  <pic50>  (3) 
6.252133369445801

>  <pki>  (3) 
6.473407745361328

>  <pkd>  (3) 
6.749767303466797

>  <pec50>  (3) 
6.454189777374268

$$$$
ptp1b_protein_3
     RDKit          3D

 39 41  0  0  0  0  0  0  0  0999 V2000
   43.5876   16.6240   15.5914 C   0  0  0  0  0  0  0  0  0  0  0  0
   41.5890   16.8581   12.0389 O   0  0  0  0  0  0  0  0  0  0  0  0
   39.7471    6.9696   13.9973 C   0  0  0  0  0  0  0  0  0  0  0  0
   42.8258   15.3522   15.3342 C   0  0  0  0  0  0  0  0  0  0  0  0
   38.8614    4.7327   14.1953 C   0  0  0  0  0  0  0  0  0  0  0  0
   41.2326   14.0378   14.0440 C   0  0  0  0  0  0  0  0  0  0  0  0
   40.6424    9.3624   15.2789 N   0  0  0  0  0  0  0  0  0  0  0  0
   39.6024   17.6259   12.6294 O   0  0  0  0  0  0  0  0  0  0  0  0
   42.7200   12.9589   15.7889 C   0  0  0  0  0  0  0  0  0  0  0  0
   41.0772    8.1600   17.1346 O   0  0  0  0  0  0  0  0  0  0  0  0
   40.7979   16.4499   14.2844 C   0  0  0  0  0  0  0  0  0  0  0  0
   39.5458    5.9448   16.1679 C   0  0  0  0  0  0  0  0  0  0  0  0
   41.3861   10.5112   15.4986 C   0  0  0  0  0  0  0  0  0  0  0  0
   39.2422    5.8147   13.4012 C   0  0  0  0  0  0  0  0  0  0  0  0
   39.0058    4.7881   15.5755 C   0  0  0  0  0  0  0  0  0  0  0  0
   41.6670   12.8503   14.8367 C   0  0  0  0  0  0  0  0  0  0  0  0
   43.7029   17.4921   14.7065 O   0  0  0  0  0  0  0  0  0  0  0  0
   40.5914    8.2275   16.0127 C   0  0  0  0  0  0  0  0  0  0  0  0
   40.5120   13.9185   13.0483 O   0  0  0  0  0  0  0  0  0  0  0  0
   44.1590   16.7263   16.7099 O   0  0  0  0  0  0  0  0  0  0  0  0
   41.0205   11.6224   14.6903 C   0  0  0  0  0  0  0  0  0  0  0  0
   39.9147    7.0293   15.3779 C   0  0  0  0  0  0  0  0  0  0  0  0
   40.6760   17.0153   12.8787 C   0  0  0  0  0  0  0  0  0  0  0  0
   42.4658   10.6298   16.3689 C   0  0  0  0  0  0  0  0  0  0  0  0
   43.3081   14.2161   16.0172 C   0  0  0  0  0  0  0  0  0  0  0  0
   43.1334   11.8318   16.5055 C   0  0  0  0  0  0  0  0  0  0  0  0
   41.6966   15.2689   14.5054 N   0  0  0  0  0  0  0  0  0  0  0  0
   40.0140    7.8362   13.3746 H   0  0  0  0  0  0  0  0  0  0  0  0
   38.4442    3.8300   13.7252 H   0  0  0  0  0  0  0  0  0  0  0  0
   40.0452    9.3748   14.4398 H   0  0  0  0  0  0  0  0  0  0  0  0
   41.1636   17.2616   14.9304 H   0  0  0  0  0  0  0  0  0  0  0  0
   39.7911   16.0680   14.5094 H   0  0  0  0  0  0  0  0  0  0  0  0
   39.6768    5.9917   17.2591 H   0  0  0  0  0  0  0  0  0  0  0  0
   39.1442    5.7568   12.3071 H   0  0  0  0  0  0  0  0  0  0  0  0
   38.7008    3.9355   16.2000 H   0  0  0  0  0  0  0  0  0  0  0  0
   40.2210   11.5131   13.9428 H   0  0  0  0  0  0  0  0  0  0  0  0
   42.7911    9.7572   16.9544 H   0  0  0  0  0  0  0  0  0  0  0  0
   44.1427   14.3132   16.7272 H   0  0  0  0  0  0  0  0  0  0  0  0
   43.9969   11.9025   17.1832 H   0  0  0  0  0  0  0  0  0  0  0  0
  4  1  1  0
 13  7  1  0
 14  3  2  0
 14  5  1  0
 15  5  2  0
 15 12  1  0
 16  6  1  0
 16  9  2  0
 17  1  1  0
 18  7  1  0
 18 10  2  0
 19  6  2  0
 20  1  2  0
 21 13  2  0
 21 16  1  0
 22  3  1  0
 22 12  2  0
 22 18  1  0
 23  2  2  0
 23  8  1  0
 23 11  1  0
 24 13  1  0
 25  4  2  0
 25  9  1  0
 26  9  1  0
 26 24  2  0
 27  4  1  0
 27  6  1  0
 27 11  1  0
  3 28  1  0
  5 29  1  0
  7 30  1  0
 11 31  1  0
 11 32  1  0
 12 33  1  0
 14 34  1  0
 15 35  1  0
 21 36  1  0
 24 37  1  0
 25 38  1  0
 26 39  1  0
M  CHG  2   8  -1  17  -1
M  END
>  <pic50>  (4) 
5.92648983001709

>  <pki>  (4) 
6.350620269775391

>  <pkd>  (4) 
6.7127532958984375

>  <pec50>  (4) 
6.262159824371338

$$$$
ptp1b_protein_4
     RDKit          3D

 41 43  0  0  0  0  0  0  0  0999 V2000
   41.5204   17.2039   11.7679 O   0  0  0  0  0  0  0  0  0  0  0  0
   43.1956   10.7009   18.0573 N   0  0  0  0  0  0  0  0  0  0  0  0
   41.9618   14.0012   11.8951 O   0  0  0  0  0  0  0  0  0  0  0  0
   38.8823    9.6043   17.6812 C   0  0  0  0  0  0  0  0  0  0  0  0
   43.0644   13.8305   16.1502 C   0  0  0  0  0  0  0  0  0  0  0  0
   40.8274    8.0541   16.4011 C   0  0  0  0  0  0  0  0  0  0  0  0
   38.5872    8.9024   16.5186 C   0  0  0  0  0  0  0  0  0  0  0  0
   39.5018   17.5775   12.5457 O   0  0  0  0  0  0  0  0  0  0  0  0
   41.8910   12.1357   14.8699 C   0  0  0  0  0  0  0  0  0  0  0  0
   42.2965   11.1864   15.8115 C   0  0  0  0  0  0  0  0  0  0  0  0
   43.6485   17.2849   15.7077 O   0  0  0  0  0  0  0  0  0  0  0  0
   41.7535   14.5845   14.2092 C   0  0  0  0  0  0  0  0  0  0  0  0
   42.9039    8.9811   18.0233 S   0  0  0  0  0  0  0  0  0  0  0  0
   41.2101   17.1426   14.1427 C   0  0  0  0  0  0  0  0  0  0  0  0
   42.2260   13.5094   15.0650 C   0  0  0  0  0  0  0  0  0  0  0  0
   43.3921   12.8932   17.1027 C   0  0  0  0  0  0  0  0  0  0  0  0
   43.1201   16.1643   15.5088 C   0  0  0  0  0  0  0  0  0  0  0  0
   39.5299    8.1014   15.8936 C   0  0  0  0  0  0  0  0  0  0  0  0
   40.7021   17.3066   12.7080 C   0  0  0  0  0  0  0  0  0  0  0  0
   42.9780   11.5700   16.9824 C   0  0  0  0  0  0  0  0  0  0  0  0
   42.9604    8.5012   19.4269 O   0  0  0  0  0  0  0  0  0  0  0  0
   42.0439   15.9173   14.5653 C   0  0  0  0  0  0  0  0  0  0  0  0
   41.0122   14.1741   12.9428 C   0  0  0  0  0  0  0  0  0  0  0  0
   41.1595    8.7981   17.5304 C   0  0  0  0  0  0  0  0  0  0  0  0
   40.1863    9.5601   18.1871 C   0  0  0  0  0  0  0  0  0  0  0  0
   43.7547    8.4077   16.9788 O   0  0  0  0  0  0  0  0  0  0  0  0
   43.5502   15.1357   16.2597 O   0  0  0  0  0  0  0  0  0  0  0  0
   43.5545   11.1066   18.9334 H   0  0  0  0  0  0  0  0  0  0  0  0
   42.8571   13.8381   12.2848 H   0  0  0  0  0  0  0  0  0  0  0  0
   38.1030   10.1856   18.1958 H   0  0  0  0  0  0  0  0  0  0  0  0
   41.5882    7.4297   15.9098 H   0  0  0  0  0  0  0  0  0  0  0  0
   37.5802    8.9847   16.0836 H   0  0  0  0  0  0  0  0  0  0  0  0
   41.3173   11.8263   13.9838 H   0  0  0  0  0  0  0  0  0  0  0  0
   42.0797   10.1224   15.6353 H   0  0  0  0  0  0  0  0  0  0  0  0
   41.8279   18.0273   14.3565 H   0  0  0  0  0  0  0  0  0  0  0  0
   40.2780   17.0018   14.7095 H   0  0  0  0  0  0  0  0  0  0  0  0
   43.9917   13.1950   17.9742 H   0  0  0  0  0  0  0  0  0  0  0  0
   39.2573    7.5097   15.0073 H   0  0  0  0  0  0  0  0  0  0  0  0
   40.2923   14.9579   12.6646 H   0  0  0  0  0  0  0  0  0  0  0  0
   40.4674   13.2341   13.1147 H   0  0  0  0  0  0  0  0  0  0  0  0
   40.4453   10.1216   19.0968 H   0  0  0  0  0  0  0  0  0  0  0  0
  7  4  2  0
 10  9  2  0
 13  2  1  0
 15  5  2  0
 15  9  1  0
 15 12  1  0
 16  5  1  0
 17 11  2  0
 18  6  2  0
 18  7  1  0
 19  1  1  0
 19  8  2  0
 19 14  1  0
 20  2  1  0
 20 10  1  0
 20 16  2  0
 21 13  2  0
 22 12  2  0
 22 14  1  0
 22 17  1  0
 23  3  1  0
 23 12  1  0
 24  6  1  0
 24 13  1  0
 25  4  1  0
 25 24  2  0
 26 13  2  0
 27  5  1  0
 27 17  1  0
  2 28  1  0
  3 29  1  0
  4 30  1  0
  6 31  1  0
  7 32  1  0
  9 33  1  0
 10 34  1  0
 14 35  1  0
 14 36  1  0
 16 37  1  0
 18 38  1  0
 23 39  1  0
 23 40  1  0
 25 41  1  0
M  CHG  1   1  -1
M  END
>  <pic50>  (5) 
5.275002956390381

>  <pki>  (5) 
6.019710540771484

>  <pkd>  (5) 
6.10529088973999

>  <pec50>  (5) 
6.109320640563965

$$$$
