REMARK  Name = 3rfm_0
REMARK  0 active torsions:
REMARK  status: ('A' for Active; 'I' for Inactive)
REMARK                            x       y       z     vdW  Elec       q    Type
REMARK                         _______ _______ _______ _____ _____    ______ ____
ROOT
ATOM      1  N   UNL     1       7.943 -34.255 -33.745  0.00  0.00    +0.000 N 
ATOM      2  C   UNL     1       9.231 -34.351 -33.333  0.00  0.00    +0.000 A 
ATOM      3  C   UNL     1       5.263 -32.239 -32.773  0.00  0.00    +0.000 A 
ATOM      4  S   UNL     1       6.297 -31.543 -31.589  0.00  0.00    +0.000 S 
ATOM      5  C   UNL     1       7.530 -32.593 -32.181  0.00  0.00    +0.000 A 
ATOM      6  C   UNL     1       8.854 -32.670 -31.669  0.00  0.00    +0.000 A 
ATOM      7  N   UNL     1       9.682 -33.559 -32.299  0.00  0.00    +0.000 N 
ATOM      8  O   UNL     1       9.227 -31.994 -30.699  0.00  0.00    +0.000 OA
ATOM      9  N   UNL     1       5.776 -33.192 -33.552  0.00  0.00    +0.000 NA
ATOM     10  N   UNL     1       9.853 -35.254 -34.030  0.00  0.00    +0.000 NA
ATOM     11  C   UNL     1      11.089 -33.675 -31.850  0.00  0.00    +0.000 C 
ATOM     12  C   UNL     1       8.916 -35.692 -34.877  0.00  0.00    +0.000 A 
ATOM     13  N   UNL     1       7.718 -35.122 -34.745  0.00  0.00    +0.000 NA
ATOM     14  C   UNL     1       7.068 -33.376 -33.195  0.00  0.00    +0.000 A 
ENDROOT
TORSDOF 0
