REMARK  Name = 3rfm_4
REMARK  0 active torsions:
REMARK  status: ('A' for Active; 'I' for Inactive)
REMARK                            x       y       z     vdW  Elec       q    Type
REMARK                         _______ _______ _______ _____ _____    ______ ____
ROOT
ATOM      1  C   UNL     1      10.791 -35.056 -33.712  0.00  0.00    +0.000 C 
ATOM      2  N   UNL     1       7.218 -34.178 -33.938  0.00  0.00    +0.000 NA
ATOM      3  C   UNL     1       7.115 -33.248 -32.980  0.00  0.00    +0.000 A 
ATOM      4  C   UNL     1       6.416 -31.695 -31.506  0.00  0.00    +0.000 C 
ATOM      5  C   UNL     1       9.452 -33.478 -32.454  0.00  0.00    +0.000 A 
ATOM      6  O   UNL     1      10.426 -33.179 -31.791  0.00  0.00    +0.000 OA
ATOM      7  N   UNL     1       7.760 -31.958 -31.297  0.00  0.00    +0.000 N 
ATOM      8  N   UNL     1       9.493 -34.411 -33.455  0.00  0.00    +0.000 N 
ATOM      9  C   UNL     1       8.172 -32.877 -32.224  0.00  0.00    +0.000 A 
ATOM     10  C   UNL     1       8.394 -34.780 -34.218  0.00  0.00    +0.000 A 
ATOM     11  N   UNL     1       6.029 -32.537 -32.560  0.00  0.00    +0.000 N 
ATOM     12  C   UNL     1       4.669 -32.640 -33.123  0.00  0.00    +0.000 C 
ATOM     13  C   UNL     1       8.524 -31.395 -30.201  0.00  0.00    +0.000 C 
ATOM     14  S   UNL     1       8.497 -35.931 -35.446  0.00  0.00    +0.000 S 
ENDROOT
TORSDOF 0
