REMARK  Name = 3rfm_0
REMARK  0 active torsions:
REMARK  status: ('A' for Active; 'I' for Inactive)
REMARK                            x       y       z     vdW  Elec       q    Type
REMARK                         _______ _______ _______ _____ _____    ______ ____
ROOT
ATOM      1  N   UNL     1       7.796 -34.170 -33.707  0.00  0.00    +0.000 N 
ATOM      2  C   UNL     1       9.091 -34.292 -33.334  0.00  0.00    +0.000 A 
ATOM      3  C   UNL     1       5.176 -32.125 -32.637  0.00  0.00    +0.000 A 
ATOM      4  S   UNL     1       6.258 -31.454 -31.479  0.00  0.00    +0.000 S 
ATOM      5  C   UNL     1       7.459 -32.519 -32.118  0.00  0.00    +0.000 A 
ATOM      6  C   UNL     1       8.792 -32.623 -31.646  0.00  0.00    +0.000 A 
ATOM      7  N   UNL     1       9.586 -33.519 -32.306  0.00  0.00    +0.000 N 
ATOM      8  O   UNL     1       9.203 -31.966 -30.680  0.00  0.00    +0.000 OA
ATOM      9  N   UNL     1       5.656 -33.075 -33.441  0.00  0.00    +0.000 NA
ATOM     10  N   UNL     1       9.677 -35.198 -34.057  0.00  0.00    +0.000 NA
ATOM     11  C   UNL     1      11.002 -33.666 -31.896  0.00  0.00    +0.000 C 
ATOM     12  C   UNL     1       8.711 -35.611 -34.883  0.00  0.00    +0.000 A 
ATOM     13  N   UNL     1       7.527 -35.022 -34.708  0.00  0.00    +0.000 NA
ATOM     14  C   UNL     1       6.955 -33.283 -33.124  0.00  0.00    +0.000 A 
ENDROOT
TORSDOF 0
