3rfm_0
     RDKit          3D

 14 16  0  0  0  0  0  0  0  0999 V2000
    7.7956  -34.1698  -33.7067 N   0  0  0  0  0  0  0  0  0  0  0  0
    9.0914  -34.2920  -33.3343 C   0  0  0  0  0  0  0  0  0  0  0  0
    5.1764  -32.1249  -32.6368 C   0  0  0  0  0  0  0  0  0  0  0  0
    6.2576  -31.4536  -31.4788 S   0  0  0  0  0  0  0  0  0  0  0  0
    7.4590  -32.5192  -32.1184 C   0  0  0  0  0  0  0  0  0  0  0  0
    8.7924  -32.6233  -31.6459 C   0  0  0  0  0  0  0  0  0  0  0  0
    9.5861  -33.5192  -32.3055 N   0  0  0  0  0  0  0  0  0  0  0  0
    9.2026  -31.9657  -30.6804 O   0  0  0  0  0  0  0  0  0  0  0  0
    5.6563  -33.0749  -33.4410 N   0  0  0  0  0  0  0  0  0  0  0  0
    9.6767  -35.1981  -34.0573 N   0  0  0  0  0  0  0  0  0  0  0  0
   11.0019  -33.6655  -31.8964 C   0  0  0  0  0  0  0  0  0  0  0  0
    8.7106  -35.6115  -34.8826 C   0  0  0  0  0  0  0  0  0  0  0  0
    7.5271  -35.0217  -34.7080 N   0  0  0  0  0  0  0  0  0  0  0  0
    6.9554  -33.2831  -33.1245 C   0  0  0  0  0  0  0  0  0  0  0  0
  2  1  1  0
  4  3  1  0
  5  4  1  0
  6  5  1  0
  7  2  1  0
  7  6  1  0
  8  6  2  0
  9  3  2  0
 10  2  2  0
 11  7  1  0
 12 10  1  0
 13  1  1  0
 13 12  2  0
 14  1  1  0
 14  5  2  0
 14  9  1  0
M  END
>  <pic50>  (1) 
3.8152074813842773

>  <pki>  (1) 
4.38978910446167

>  <pkd>  (1) 
3.9984302520751953

>  <pec50>  (1) 
5.030946731567383

>  <SA_SCORE>  (1) 
3.254

>  <QED>  (1) 
0.522

>  <VINA_SCORE>  (1) 
-7.440

$$$$
3rfm_1
     RDKit          3D

 14 15  0  0  0  0  0  0  0  0999 V2000
    8.5616  -31.8784  -30.7796 N   0  0  0  0  0  0  0  0  0  0  0  0
    8.8730  -35.5093  -34.9129 C   0  0  0  0  0  0  0  0  0  0  0  0
    8.7814  -32.7685  -31.7359 C   0  0  0  0  0  0  0  0  0  0  0  0
    6.7157  -32.1883  -31.9510 N   0  0  0  0  0  0  0  0  0  0  0  0
   11.1625  -33.2389  -31.2057 C   0  0  0  0  0  0  0  0  0  0  0  0
    7.6842  -32.9922  -32.4832 C   0  0  0  0  0  0  0  0  0  0  0  0
    7.2932  -31.5285  -30.9294 C   0  0  0  0  0  0  0  0  0  0  0  0
    5.3272  -32.0390  -32.3774 C   0  0  0  0  0  0  0  0  0  0  0  0
    9.9516  -33.4668  -32.0301 N   0  0  0  0  0  0  0  0  0  0  0  0
    6.6346  -34.0997  -34.2202 O   0  0  0  0  0  0  0  0  0  0  0  0
    7.6474  -33.9081  -33.5643 C   0  0  0  0  0  0  0  0  0  0  0  0
    8.8329  -34.5421  -33.7943 N   0  0  0  0  0  0  0  0  0  0  0  0
   11.0155  -34.9617  -33.3393 O   0  0  0  0  0  0  0  0  0  0  0  0
   10.0034  -34.3682  -33.0800 C   0  0  0  0  0  0  0  0  0  0  0  0
  3  1  1  0
  6  3  2  0
  6  4  1  0
  7  1  2  0
  7  4  1  0
  8  4  1  0
  9  3  1  0
  9  5  1  0
 11  6  1  0
 11 10  2  0
 12  2  1  0
 12 11  1  0
 14  9  1  0
 14 12  1  0
 14 13  2  0
M  END
>  <pic50>  (2) 
3.8254799842834473

>  <pki>  (2) 
4.833081245422363

>  <pkd>  (2) 
4.2916178703308105

>  <pec50>  (2) 
5.514920234680176

>  <SA_SCORE>  (2) 
2.298

>  <QED>  (2) 
0.538

>  <VINA_SCORE>  (2) 
-7.410

$$$$
3rfm_2
     RDKit          3D

 14 15  0  0  0  0  0  0  0  0999 V2000
    9.2202  -34.5627  -32.8906 C   0  0  0  0  0  0  0  0  0  0  0  0
   10.1500  -35.3342  -33.0284 O   0  0  0  0  0  0  0  0  0  0  0  0
   11.6241  -33.1072  -31.4193 C   0  0  0  0  0  0  0  0  0  0  0  0
    8.1935  -31.8152  -30.8622 O   0  0  0  0  0  0  0  0  0  0  0  0
    9.1992  -33.6029  -31.8913 N   0  0  0  0  0  0  0  0  0  0  0  0
    5.8723  -33.7956  -34.2303 N   0  0  0  0  0  0  0  0  0  0  0  0
    7.0346  -33.8165  -33.5686 C   0  0  0  0  0  0  0  0  0  0  0  0
    8.1098  -35.6626  -34.8050 C   0  0  0  0  0  0  0  0  0  0  0  0
    7.0690  -32.8502  -32.6049 C   0  0  0  0  0  0  0  0  0  0  0  0
    8.1159  -34.6582  -33.7332 N   0  0  0  0  0  0  0  0  0  0  0  0
   10.2895  -33.6010  -30.9161 C   0  0  0  0  0  0  0  0  0  0  0  0
    8.1874  -32.6957  -31.7274 C   0  0  0  0  0  0  0  0  0  0  0  0
    5.8796  -32.2073  -32.6724 N   0  0  0  0  0  0  0  0  0  0  0  0
    5.1807  -32.8124  -33.6509 C   0  0  0  0  0  0  0  0  0  0  0  0
  2  1  2  0
  5  1  1  0
  7  6  1  0
  9  7  2  0
 10  1  1  0
 10  7  1  0
 10  8  1  0
 11  3  1  0
 11  5  1  0
 12  4  2  0
 12  5  1  0
 12  9  1  0
 13  9  1  0
 14  6  2  0
 14 13  1  0
M  END
>  <pic50>  (3) 
4.116513252258301

>  <pki>  (3) 
4.7553510665893555

>  <pkd>  (3) 
4.177114009857178

>  <pec50>  (3) 
5.377578258514404

>  <SA_SCORE>  (3) 
2.542

>  <QED>  (3) 
0.661

>  <VINA_SCORE>  (3) 
-7.510

$$$$
3rfm_3
     RDKit          3D

 14 15  0  0  0  0  0  0  0  0999 V2000
    8.0044  -32.6651  -32.2784 C   0  0  1  0  0  0  0  0  0  0  0  0
    8.7948  -35.9267  -35.2575 S   0  0  0  0  0  0  0  0  0  0  0  0
    5.2559  -33.8156  -34.1453 C   0  0  0  0  0  0  0  0  0  0  0  0
   10.2981  -32.9826  -31.7163 O   0  0  0  0  0  0  0  0  0  0  0  0
    7.2564  -34.2627  -33.9877 N   0  0  0  0  0  0  0  0  0  0  0  0
    9.3466  -33.3099  -32.4229 C   0  0  0  0  0  0  0  0  0  0  0  0
    6.5049  -30.9893  -31.2509 C   0  0  0  0  0  0  0  0  0  0  0  0
    6.9882  -33.2723  -33.1056 C   0  0  0  0  0  0  0  0  0  0  0  0
    6.1660  -34.6071  -34.6607 N   0  0  0  0  0  0  0  0  0  0  0  0
    8.4580  -31.6809  -30.0204 C   0  0  0  0  0  0  0  0  0  0  0  0
    8.5428  -34.8039  -34.1804 C   0  0  0  0  0  0  0  0  0  0  0  0
    7.7006  -31.8192  -31.2441 N   0  0  0  0  0  0  0  0  0  0  0  0
    9.4845  -34.2701  -33.3726 N   0  0  0  0  0  0  0  0  0  0  0  0
    5.7045  -32.9926  -33.1954 N   0  0  0  0  0  0  0  0  0  0  0  0
  6  1  1  0
  6  4  2  0
  8  1  1  0
  8  5  1  0
  9  3  2  0
  9  5  1  0
 11  2  2  0
 11  5  1  0
  1 12  1  1
 12  7  1  0
 12 10  1  0
 13  6  1  0
 13 11  1  0
 14  3  1  0
 14  8  2  0
M  END
>  <pic50>  (4) 
3.929203510284424

>  <pki>  (4) 
4.363348960876465

>  <pkd>  (4) 
3.9936609268188477

>  <pec50>  (4) 
5.276158809661865

>  <SA_SCORE>  (4) 
3.951

>  <QED>  (4) 
0.613

>  <VINA_SCORE>  (4) 
-7.520

$$$$
3rfm_4
     RDKit          3D

 14 15  0  0  0  0  0  0  0  0999 V2000
   10.7914  -35.0560  -33.7115 C   0  0  0  0  0  0  0  0  0  0  0  0
    7.2183  -34.1778  -33.9382 N   0  0  0  0  0  0  0  0  0  0  0  0
    7.1147  -33.2480  -32.9800 C   0  0  0  0  0  0  0  0  0  0  0  0
    6.4159  -31.6950  -31.5060 C   0  0  0  0  0  0  0  0  0  0  0  0
    9.4524  -33.4777  -32.4543 C   0  0  0  0  0  0  0  0  0  0  0  0
   10.4264  -33.1792  -31.7905 O   0  0  0  0  0  0  0  0  0  0  0  0
    7.7603  -31.9583  -31.2973 N   0  0  0  0  0  0  0  0  0  0  0  0
    9.4933  -34.4111  -33.4551 N   0  0  0  0  0  0  0  0  0  0  0  0
    8.1723  -32.8766  -32.2245 C   0  0  0  0  0  0  0  0  0  0  0  0
    8.3938  -34.7801  -34.2178 C   0  0  0  0  0  0  0  0  0  0  0  0
    6.0289  -32.5373  -32.5601 N   0  0  0  0  0  0  0  0  0  0  0  0
    4.6687  -32.6401  -33.1228 C   0  0  0  0  0  0  0  0  0  0  0  0
    8.5235  -31.3952  -30.2010 C   0  0  0  0  0  0  0  0  0  0  0  0
    8.4971  -35.9311  -35.4458 S   0  0  0  0  0  0  0  0  0  0  0  0
  3  2  1  0
  6  5  2  0
  7  4  1  0
  8  1  1  0
  8  5  1  0
  9  3  2  0
  9  5  1  0
  9  7  1  0
 10  2  1  0
 10  8  1  0
 11  3  1  0
 11  4  1  0
 12 11  1  0
 13  7  1  0
 14 10  2  0
M  END
>  <pic50>  (5) 
4.536568641662598

>  <pki>  (5) 
5.2286529541015625

>  <pkd>  (5) 
4.322039604187012

>  <pec50>  (5) 
5.4497785568237305

>  <SA_SCORE>  (5) 
3.410

>  <QED>  (5) 
0.628

>  <VINA_SCORE>  (5) 
-7.360

$$$$
3rfm_5
     RDKit          3D

 14 16  0  0  0  0  0  0  0  0999 V2000
   10.6579  -34.9812  -33.4679 O   0  0  0  0  0  0  0  0  0  0  0  0
    7.4742  -32.7228  -32.3208 C   0  0  0  0  0  0  0  0  0  0  0  0
    9.6880  -34.2815  -33.0910 C   0  0  0  0  0  0  0  0  0  0  0  0
    6.6151  -31.8684  -31.7491 N   0  0  0  0  0  0  0  0  0  0  0  0
    8.1087  -35.1639  -34.7508 C   0  0  0  0  0  0  0  0  0  0  0  0
    7.3495  -31.2772  -30.7586 N   0  0  0  0  0  0  0  0  0  0  0  0
    8.4521  -34.3538  -33.7128 N   0  0  0  0  0  0  0  0  0  0  0  0
    9.7611  -33.4070  -32.0353 N   0  0  0  0  0  0  0  0  0  0  0  0
    8.6747  -32.6277  -31.6546 C   0  0  0  0  0  0  0  0  0  0  0  0
    8.6152  -31.7608  -30.6837 N   0  0  0  0  0  0  0  0  0  0  0  0
   11.0299  -33.3007  -31.2826 C   0  0  0  0  0  0  0  0  0  0  0  0
    6.7807  -34.8861  -34.9963 C   0  0  0  0  0  0  0  0  0  0  0  0
    7.3720  -33.6243  -33.3724 C   0  0  0  0  0  0  0  0  0  0  0  0
    6.3417  -33.9173  -34.1467 N   0  0  0  0  0  0  0  0  0  0  0  0
  3  1  2  0
  4  2  2  0
  6  4  1  0
  7  3  1  0
  7  5  1  0
  8  3  1  0
  9  2  1  0
  9  8  1  0
 10  6  1  0
 10  9  2  0
 11  8  1  0
 12  5  2  0
 13  2  1  0
 13  7  1  0
 14 12  1  0
 14 13  2  0
M  END
>  <pic50>  (6) 
4.736999034881592

>  <pki>  (6) 
4.630227088928223

>  <pkd>  (6) 
4.1300859451293945

>  <pec50>  (6) 
5.524096965789795

>  <SA_SCORE>  (6) 
3.142

>  <QED>  (6) 
0.508

>  <VINA_SCORE>  (6) 
-7.850

$$$$
3rfm_6
     RDKit          3D

 14 15  0  0  0  0  0  0  0  0999 V2000
    7.1281  -33.5757  -33.3244 N   0  0  0  0  0  0  0  0  0  0  0  0
    7.8198  -32.0087  -31.2126 C   0  0  0  0  0  0  0  0  0  0  0  0
    5.0612  -32.6042  -33.3460 O   0  0  0  0  0  0  0  0  0  0  0  0
    8.1092  -35.0262  -34.4948 C   0  0  0  0  0  0  0  0  0  0  0  0
    9.0375  -34.5993  -33.5540 C   0  0  0  0  0  0  0  0  0  0  0  0
    8.0487  -31.2994  -30.2369 O   0  0  0  0  0  0  0  0  0  0  0  0
    8.3826  -33.6761  -32.8030 C   0  0  0  0  0  0  0  0  0  0  0  0
   10.6837  -35.1726  -33.4217 Cl  0  0  0  0  0  0  0  0  0  0  0  0
    8.3357  -36.0572  -35.5572 C   0  0  0  0  0  0  0  0  0  0  0  0
    6.6079  -31.9250  -31.8143 N   0  0  0  0  0  0  0  0  0  0  0  0
   10.0407  -33.0736  -31.0197 C   0  0  0  0  0  0  0  0  0  0  0  0
    6.9499  -34.4045  -34.3576 N   0  0  0  0  0  0  0  0  0  0  0  0
    6.1951  -32.6842  -32.8543 C   0  0  0  0  0  0  0  0  0  0  0  0
    8.7425  -32.9273  -31.7010 N   0  0  0  0  0  0  0  0  0  0  0  0
  5  4  1  0
  6  2  2  0
  7  1  1  0
  7  5  2  0
  8  5  1  0
  9  4  1  0
 10  2  1  0
 12  1  1  0
 12  4  2  0
 13  1  1  0
 13  3  2  0
 13 10  1  0
 14  2  1  0
 14  7  1  0
 14 11  1  0
M  END
>  <pic50>  (7) 
4.491478443145752

>  <pki>  (7) 
4.497102737426758

>  <pkd>  (7) 
3.9534475803375244

>  <pec50>  (7) 
5.612375736236572

>  <SA_SCORE>  (7) 
3.065

>  <QED>  (7) 
0.654

>  <VINA_SCORE>  (7) 
-8.140

$$$$
3rfm_7
     RDKit          3D

 14 15  0  0  0  0  0  0  0  0999 V2000
    8.1020  -32.6194  -32.0520 N   0  0  0  0  0  0  0  0  0  0  0  0
    6.7479  -33.7813  -33.6153 C   0  0  0  0  0  0  0  0  0  0  0  0
    7.7085  -35.8049  -35.4217 Br  0  0  0  0  0  0  0  0  0  0  0  0
    7.9914  -31.6691  -31.1114 N   0  0  0  0  0  0  0  0  0  0  0  0
   10.6188  -33.3882  -30.5588 C   0  0  0  0  0  0  0  0  0  0  0  0
   10.6067  -35.2126  -34.0305 Br  0  0  0  0  0  0  0  0  0  0  0  0
    9.2394  -33.2880  -32.4459 C   0  0  0  0  0  0  0  0  0  0  0  0
    6.7087  -31.3361  -31.0994 N   0  0  0  0  0  0  0  0  0  0  0  0
    9.1013  -34.2326  -33.4467 C   0  0  0  0  0  0  0  0  0  0  0  0
    5.0377  -34.0987  -34.3811 Br  0  0  0  0  0  0  0  0  0  0  0  0
    6.0069  -32.0329  -32.0210 N   0  0  0  0  0  0  0  0  0  0  0  0
    6.8894  -32.8370  -32.6101 C   0  0  0  0  0  0  0  0  0  0  0  0
   10.4474  -33.0168  -31.8887 O   0  0  0  0  0  0  0  0  0  0  0  0
    7.8629  -34.4876  -34.0386 C   0  0  0  0  0  0  0  0  0  0  0  0
  4  1  1  0
  7  1  1  0
  8  4  2  0
  9  6  1  0
  9  7  2  0
 10  2  1  0
 11  8  1  0
 12  1  1  0
 12  2  1  0
 12 11  2  0
 13  5  1  0
 13  7  1  0
 14  2  2  0
 14  3  1  0
 14  9  1  0
M  END
>  <pic50>  (8) 
5.213961601257324

>  <pki>  (8) 
6.856217384338379

>  <pkd>  (8) 
5.797238349914551

>  <pec50>  (8) 
5.592231273651123

>  <SA_SCORE>  (8) 
3.386

>  <QED>  (8) 
0.755

>  <VINA_SCORE>  (8) 
-8.220

$$$$
3rfm_8
     RDKit          3D

 14 15  0  0  0  0  0  0  0  0999 V2000
   10.8583  -33.4502  -32.3515 C   0  0  0  0  0  0  0  0  0  0  0  0
    5.9350  -31.9179  -32.0577 N   0  0  0  0  0  0  0  0  0  0  0  0
    9.4848  -33.6703  -32.8420 N   0  0  0  0  0  0  0  0  0  0  0  0
    8.3571  -32.9827  -32.4674 C   0  0  0  0  0  0  0  0  0  0  0  0
   11.0365  -33.8012  -30.8992 C   0  0  0  0  0  0  0  0  0  0  0  0
    4.9552  -33.2743  -33.6872 N   0  0  0  0  0  0  0  0  0  0  0  0
    7.8087  -34.4585  -34.0183 N   0  0  0  0  0  0  0  0  0  0  0  0
    8.2502  -32.0072  -31.5359 N   0  0  0  0  0  0  0  0  0  0  0  0
    7.3091  -33.4626  -33.2068 C   0  0  0  0  0  0  0  0  0  0  0  0
    7.0243  -31.5173  -31.3837 C   0  0  0  0  0  0  0  0  0  0  0  0
    9.1413  -34.5691  -33.7865 C   0  0  0  0  0  0  0  0  0  0  0  0
    9.9172  -35.3641  -34.3426 O   0  0  0  0  0  0  0  0  0  0  0  0
    7.0818  -35.2711  -34.9959 C   0  0  0  0  0  0  0  0  0  0  0  0
    6.0637  -32.8943  -33.0014 C   0  0  0  0  0  0  0  0  0  0  0  0
  3  1  1  0
  4  3  1  0
  5  1  1  0
  8  4  2  0
  9  4  1  0
  9  7  1  0
 10  2  2  0
 10  8  1  0
 11  3  1  0
 11  7  1  0
 12 11  2  0
 13  7  1  0
 14  2  1  0
 14  6  1  0
 14  9  2  0
M  END
>  <pic50>  (9) 
4.668321132659912

>  <pki>  (9) 
4.768385887145996

>  <pkd>  (9) 
4.4010114669799805

>  <pec50>  (9) 
5.438683986663818

>  <SA_SCORE>  (9) 
2.534

>  <QED>  (9) 
0.676

>  <VINA_SCORE>  (9) 
-7.040

$$$$
3rfm_9
     RDKit          3D

 14 15  0  0  0  0  0  0  0  0999 V2000
    5.1468  -33.3865  -33.9205 C   0  0  0  0  0  0  0  0  0  0  0  0
    7.3749  -33.8935  -33.5837 C   0  0  0  0  0  0  0  0  0  0  0  0
    5.1863  -32.4242  -32.8973 C   0  0  0  0  0  0  0  0  0  0  0  0
    8.8346  -31.9686  -30.9379 O   0  0  0  0  0  0  0  0  0  0  0  0
    6.3621  -32.1958  -32.2194 C   0  0  0  0  0  0  0  0  0  0  0  0
   10.6762  -35.1710  -33.5665 O   0  0  0  0  0  0  0  0  0  0  0  0
    7.4742  -32.9397  -32.5598 C   0  0  0  0  0  0  0  0  0  0  0  0
    9.6964  -34.4927  -33.2623 C   0  0  0  0  0  0  0  0  0  0  0  0
    8.7166  -32.7684  -31.8604 C   0  0  0  0  0  0  0  0  0  0  0  0
   11.0795  -33.4118  -31.5496 C   0  0  0  0  0  0  0  0  0  0  0  0
    9.7675  -33.5587  -32.2511 N   0  0  0  0  0  0  0  0  0  0  0  0
    6.2131  -34.1059  -34.2542 N   0  0  0  0  0  0  0  0  0  0  0  0
    8.4208  -35.6351  -34.9789 C   0  0  0  0  0  0  0  0  0  0  0  0
    8.4981  -34.6377  -33.9027 N   0  0  0  0  0  0  0  0  0  0  0  0
  3  1  2  0
  5  3  1  0
  7  2  1  0
  7  5  2  0
  8  6  2  0
  9  4  2  0
  9  7  1  0
 11  8  1  0
 11  9  1  0
 11 10  1  0
 12  1  1  0
 12  2  2  0
 14  2  1  0
 14  8  1  0
 14 13  1  0
M  END
>  <pic50>  (10) 
4.096109867095947

>  <pki>  (10) 
4.472885608673096

>  <pkd>  (10) 
3.988013982772827

>  <pec50>  (10) 
5.120015621185303

>  <SA_SCORE>  (10) 
2.003

>  <QED>  (10) 
0.571

>  <VINA_SCORE>  (10) 
-7.310

$$$$
