3rfm_2
     RDKit          3D

 14 15  0  0  0  0  0  0  0  0999 V2000
    9.2202  -34.5627  -32.8906 C   0  0  0  0  0  0  0  0  0  0  0  0
   10.1500  -35.3342  -33.0284 O   0  0  0  0  0  0  0  0  0  0  0  0
   11.6241  -33.1072  -31.4193 C   0  0  0  0  0  0  0  0  0  0  0  0
    8.1935  -31.8152  -30.8622 O   0  0  0  0  0  0  0  0  0  0  0  0
    9.1992  -33.6029  -31.8913 N   0  0  0  0  0  0  0  0  0  0  0  0
    5.8723  -33.7956  -34.2303 N   0  0  0  0  0  0  0  0  0  0  0  0
    7.0346  -33.8165  -33.5686 C   0  0  0  0  0  0  0  0  0  0  0  0
    8.1098  -35.6626  -34.8050 C   0  0  0  0  0  0  0  0  0  0  0  0
    7.0690  -32.8502  -32.6049 C   0  0  0  0  0  0  0  0  0  0  0  0
    8.1159  -34.6582  -33.7332 N   0  0  0  0  0  0  0  0  0  0  0  0
   10.2895  -33.6010  -30.9161 C   0  0  0  0  0  0  0  0  0  0  0  0
    8.1874  -32.6957  -31.7274 C   0  0  0  0  0  0  0  0  0  0  0  0
    5.8796  -32.2073  -32.6724 N   0  0  0  0  0  0  0  0  0  0  0  0
    5.1807  -32.8124  -33.6509 C   0  0  0  0  0  0  0  0  0  0  0  0
  2  1  2  0
  5  1  1  0
  7  6  1  0
  9  7  2  0
 10  1  1  0
 10  7  1  0
 10  8  1  0
 11  3  1  0
 11  5  1  0
 12  4  2  0
 12  5  1  0
 12  9  1  0
 13  9  1  0
 14  6  2  0
 14 13  1  0
M  END
>  <pic50>  (3) 
4.116513252258301

>  <pki>  (3) 
4.7553510665893555

>  <pkd>  (3) 
4.177114009857178

>  <pec50>  (3) 
5.377578258514404

>  <SA_SCORE>  (3) 
2.542

>  <QED>  (3) 
0.661

>  <VINA_SCORE>  (3) 
-7.510
$$$$
