3rfm_4
     RDKit          3D

 14 15  0  0  0  0  0  0  0  0999 V2000
   10.7914  -35.0560  -33.7115 C   0  0  0  0  0  0  0  0  0  0  0  0
    7.2183  -34.1778  -33.9382 N   0  0  0  0  0  0  0  0  0  0  0  0
    7.1147  -33.2480  -32.9800 C   0  0  0  0  0  0  0  0  0  0  0  0
    6.4159  -31.6950  -31.5060 C   0  0  0  0  0  0  0  0  0  0  0  0
    9.4524  -33.4777  -32.4543 C   0  0  0  0  0  0  0  0  0  0  0  0
   10.4264  -33.1792  -31.7905 O   0  0  0  0  0  0  0  0  0  0  0  0
    7.7603  -31.9583  -31.2973 N   0  0  0  0  0  0  0  0  0  0  0  0
    9.4933  -34.4111  -33.4551 N   0  0  0  0  0  0  0  0  0  0  0  0
    8.1723  -32.8766  -32.2245 C   0  0  0  0  0  0  0  0  0  0  0  0
    8.3938  -34.7801  -34.2178 C   0  0  0  0  0  0  0  0  0  0  0  0
    6.0289  -32.5373  -32.5601 N   0  0  0  0  0  0  0  0  0  0  0  0
    4.6687  -32.6401  -33.1228 C   0  0  0  0  0  0  0  0  0  0  0  0
    8.5235  -31.3952  -30.2010 C   0  0  0  0  0  0  0  0  0  0  0  0
    8.4971  -35.9311  -35.4458 S   0  0  0  0  0  0  0  0  0  0  0  0
  3  2  1  0
  6  5  2  0
  7  4  1  0
  8  1  1  0
  8  5  1  0
  9  3  2  0
  9  5  1  0
  9  7  1  0
 10  2  1  0
 10  8  1  0
 11  3  1  0
 11  4  1  0
 12 11  1  0
 13  7  1  0
 14 10  2  0
M  END
>  <pic50>  (5) 
4.536568641662598

>  <pki>  (5) 
5.2286529541015625

>  <pkd>  (5) 
4.322039604187012

>  <pec50>  (5) 
5.4497785568237305

>  <SA_SCORE>  (5) 
3.410

>  <QED>  (5) 
0.628

>  <VINA_SCORE>  (5) 
-7.370
$$$$
