3rfm_9
     RDKit          3D

 14 15  0  0  0  0  0  0  0  0999 V2000
    5.1468  -33.3865  -33.9205 C   0  0  0  0  0  0  0  0  0  0  0  0
    7.3749  -33.8935  -33.5837 C   0  0  0  0  0  0  0  0  0  0  0  0
    5.1863  -32.4242  -32.8973 C   0  0  0  0  0  0  0  0  0  0  0  0
    8.8346  -31.9686  -30.9379 O   0  0  0  0  0  0  0  0  0  0  0  0
    6.3621  -32.1958  -32.2194 C   0  0  0  0  0  0  0  0  0  0  0  0
   10.6762  -35.1710  -33.5665 O   0  0  0  0  0  0  0  0  0  0  0  0
    7.4742  -32.9397  -32.5598 C   0  0  0  0  0  0  0  0  0  0  0  0
    9.6964  -34.4927  -33.2623 C   0  0  0  0  0  0  0  0  0  0  0  0
    8.7166  -32.7684  -31.8604 C   0  0  0  0  0  0  0  0  0  0  0  0
   11.0795  -33.4118  -31.5496 C   0  0  0  0  0  0  0  0  0  0  0  0
    9.7675  -33.5587  -32.2511 N   0  0  0  0  0  0  0  0  0  0  0  0
    6.2131  -34.1059  -34.2542 N   0  0  0  0  0  0  0  0  0  0  0  0
    8.4208  -35.6351  -34.9789 C   0  0  0  0  0  0  0  0  0  0  0  0
    8.4981  -34.6377  -33.9027 N   0  0  0  0  0  0  0  0  0  0  0  0
  3  1  2  0
  5  3  1  0
  7  2  1  0
  7  5  2  0
  8  6  2  0
  9  4  2  0
  9  7  1  0
 11  8  1  0
 11  9  1  0
 11 10  1  0
 12  1  1  0
 12  2  2  0
 14  2  1  0
 14  8  1  0
 14 13  1  0
M  END
>  <pic50>  (10) 
4.096109867095947

>  <pki>  (10) 
4.472885608673096

>  <pkd>  (10) 
3.988013982772827

>  <pec50>  (10) 
5.120015621185303

>  <SA_SCORE>  (10) 
2.003

>  <QED>  (10) 
0.571

>  <VINA_SCORE>  (10) 
-7.310
$$$$
