3rfm_5
     RDKit          3D

 14 16  0  0  0  0  0  0  0  0999 V2000
   10.6579  -34.9812  -33.4679 O   0  0  0  0  0  0  0  0  0  0  0  0
    7.4742  -32.7228  -32.3208 C   0  0  0  0  0  0  0  0  0  0  0  0
    9.6880  -34.2815  -33.0910 C   0  0  0  0  0  0  0  0  0  0  0  0
    6.6151  -31.8684  -31.7491 N   0  0  0  0  0  0  0  0  0  0  0  0
    8.1087  -35.1639  -34.7508 C   0  0  0  0  0  0  0  0  0  0  0  0
    7.3495  -31.2772  -30.7586 N   0  0  0  0  0  0  0  0  0  0  0  0
    8.4521  -34.3538  -33.7128 N   0  0  0  0  0  0  0  0  0  0  0  0
    9.7611  -33.4070  -32.0353 N   0  0  0  0  0  0  0  0  0  0  0  0
    8.6747  -32.6277  -31.6546 C   0  0  0  0  0  0  0  0  0  0  0  0
    8.6152  -31.7608  -30.6837 N   0  0  0  0  0  0  0  0  0  0  0  0
   11.0299  -33.3007  -31.2826 C   0  0  0  0  0  0  0  0  0  0  0  0
    6.7807  -34.8861  -34.9963 C   0  0  0  0  0  0  0  0  0  0  0  0
    7.3720  -33.6243  -33.3724 C   0  0  0  0  0  0  0  0  0  0  0  0
    6.3417  -33.9173  -34.1467 N   0  0  0  0  0  0  0  0  0  0  0  0
  3  1  2  0
  4  2  2  0
  6  4  1  0
  7  3  1  0
  7  5  1  0
  8  3  1  0
  9  2  1  0
  9  8  1  0
 10  6  1  0
 10  9  2  0
 11  8  1  0
 12  5  2  0
 13  2  1  0
 13  7  1  0
 14 12  1  0
 14 13  2  0
M  END
>  <pic50>  (6) 
4.736999034881592

>  <pki>  (6) 
4.630227088928223

>  <pkd>  (6) 
4.1300859451293945

>  <pec50>  (6) 
5.524096965789795

>  <SA_SCORE>  (6) 
3.142

>  <QED>  (6) 
0.508

>  <VINA_SCORE>  (6) 
-7.850
$$$$
