3rfm_8
     RDKit          3D

 14 15  0  0  0  0  0  0  0  0999 V2000
   10.8583  -33.4502  -32.3515 C   0  0  0  0  0  0  0  0  0  0  0  0
    5.9350  -31.9179  -32.0577 N   0  0  0  0  0  0  0  0  0  0  0  0
    9.4848  -33.6703  -32.8420 N   0  0  0  0  0  0  0  0  0  0  0  0
    8.3571  -32.9827  -32.4674 C   0  0  0  0  0  0  0  0  0  0  0  0
   11.0365  -33.8012  -30.8992 C   0  0  0  0  0  0  0  0  0  0  0  0
    4.9552  -33.2743  -33.6872 N   0  0  0  0  0  0  0  0  0  0  0  0
    7.8087  -34.4585  -34.0183 N   0  0  0  0  0  0  0  0  0  0  0  0
    8.2502  -32.0072  -31.5359 N   0  0  0  0  0  0  0  0  0  0  0  0
    7.3091  -33.4626  -33.2068 C   0  0  0  0  0  0  0  0  0  0  0  0
    7.0243  -31.5173  -31.3837 C   0  0  0  0  0  0  0  0  0  0  0  0
    9.1413  -34.5691  -33.7865 C   0  0  0  0  0  0  0  0  0  0  0  0
    9.9172  -35.3641  -34.3426 O   0  0  0  0  0  0  0  0  0  0  0  0
    7.0818  -35.2711  -34.9959 C   0  0  0  0  0  0  0  0  0  0  0  0
    6.0637  -32.8943  -33.0014 C   0  0  0  0  0  0  0  0  0  0  0  0
  3  1  1  0
  4  3  1  0
  5  1  1  0
  8  4  2  0
  9  4  1  0
  9  7  1  0
 10  2  2  0
 10  8  1  0
 11  3  1  0
 11  7  1  0
 12 11  2  0
 13  7  1  0
 14  2  1  0
 14  6  1  0
 14  9  2  0
M  END
>  <pic50>  (9) 
4.668321132659912

>  <pki>  (9) 
4.768385887145996

>  <pkd>  (9) 
4.4010114669799805

>  <pec50>  (9) 
5.438683986663818

>  <SA_SCORE>  (9) 
2.534

>  <QED>  (9) 
0.676

>  <VINA_SCORE>  (9) 
-7.040
$$$$
