3rfm_0
     RDKit          3D

 14 16  0  0  0  0  0  0  0  0999 V2000
    7.7956  -34.1698  -33.7067 N   0  0  0  0  0  0  0  0  0  0  0  0
    9.0914  -34.2920  -33.3343 C   0  0  0  0  0  0  0  0  0  0  0  0
    5.1764  -32.1249  -32.6368 C   0  0  0  0  0  0  0  0  0  0  0  0
    6.2576  -31.4536  -31.4788 S   0  0  0  0  0  0  0  0  0  0  0  0
    7.4590  -32.5192  -32.1184 C   0  0  0  0  0  0  0  0  0  0  0  0
    8.7924  -32.6233  -31.6459 C   0  0  0  0  0  0  0  0  0  0  0  0
    9.5861  -33.5192  -32.3055 N   0  0  0  0  0  0  0  0  0  0  0  0
    9.2026  -31.9657  -30.6804 O   0  0  0  0  0  0  0  0  0  0  0  0
    5.6563  -33.0749  -33.4410 N   0  0  0  0  0  0  0  0  0  0  0  0
    9.6767  -35.1981  -34.0573 N   0  0  0  0  0  0  0  0  0  0  0  0
   11.0019  -33.6655  -31.8964 C   0  0  0  0  0  0  0  0  0  0  0  0
    8.7106  -35.6115  -34.8826 C   0  0  0  0  0  0  0  0  0  0  0  0
    7.5271  -35.0217  -34.7080 N   0  0  0  0  0  0  0  0  0  0  0  0
    6.9554  -33.2831  -33.1245 C   0  0  0  0  0  0  0  0  0  0  0  0
  2  1  1  0
  4  3  1  0
  5  4  1  0
  6  5  1  0
  7  2  1  0
  7  6  1  0
  8  6  2  0
  9  3  2  0
 10  2  2  0
 11  7  1  0
 12 10  1  0
 13  1  1  0
 13 12  2  0
 14  1  1  0
 14  5  2  0
 14  9  1  0
M  END
>  <pic50>  (1) 
3.8152074813842773

>  <pki>  (1) 
4.38978910446167

>  <pkd>  (1) 
3.9984302520751953

>  <pec50>  (1) 
5.030946731567383

>  <SA_SCORE>  (1) 
3.254

>  <QED>  (1) 
0.522

>  <VINA_SCORE>  (1) 
-7.440
$$$$
