3rfm_6
     RDKit          3D

 14 15  0  0  0  0  0  0  0  0999 V2000
    7.1281  -33.5757  -33.3244 N   0  0  0  0  0  0  0  0  0  0  0  0
    7.8198  -32.0087  -31.2126 C   0  0  0  0  0  0  0  0  0  0  0  0
    5.0612  -32.6042  -33.3460 O   0  0  0  0  0  0  0  0  0  0  0  0
    8.1092  -35.0262  -34.4948 C   0  0  0  0  0  0  0  0  0  0  0  0
    9.0375  -34.5993  -33.5540 C   0  0  0  0  0  0  0  0  0  0  0  0
    8.0487  -31.2994  -30.2369 O   0  0  0  0  0  0  0  0  0  0  0  0
    8.3826  -33.6761  -32.8030 C   0  0  0  0  0  0  0  0  0  0  0  0
   10.6837  -35.1726  -33.4217 Cl  0  0  0  0  0  0  0  0  0  0  0  0
    8.3357  -36.0572  -35.5572 C   0  0  0  0  0  0  0  0  0  0  0  0
    6.6079  -31.9250  -31.8143 N   0  0  0  0  0  0  0  0  0  0  0  0
   10.0407  -33.0736  -31.0197 C   0  0  0  0  0  0  0  0  0  0  0  0
    6.9499  -34.4045  -34.3576 N   0  0  0  0  0  0  0  0  0  0  0  0
    6.1951  -32.6842  -32.8543 C   0  0  0  0  0  0  0  0  0  0  0  0
    8.7425  -32.9273  -31.7010 N   0  0  0  0  0  0  0  0  0  0  0  0
  5  4  1  0
  6  2  2  0
  7  1  1  0
  7  5  2  0
  8  5  1  0
  9  4  1  0
 10  2  1  0
 12  1  1  0
 12  4  2  0
 13  1  1  0
 13  3  2  0
 13 10  1  0
 14  2  1  0
 14  7  1  0
 14 11  1  0
M  END
>  <pic50>  (7) 
4.491478443145752

>  <pki>  (7) 
4.497102737426758

>  <pkd>  (7) 
3.9534475803375244

>  <pec50>  (7) 
5.612375736236572

>  <SA_SCORE>  (7) 
3.065

>  <QED>  (7) 
0.654

>  <VINA_SCORE>  (7) 
-8.140
$$$$
