3rfm_3
     RDKit          3D

 14 15  0  0  0  0  0  0  0  0999 V2000
    8.0044  -32.6651  -32.2784 C   0  0  1  0  0  0  0  0  0  0  0  0
    8.7948  -35.9267  -35.2575 S   0  0  0  0  0  0  0  0  0  0  0  0
    5.2559  -33.8156  -34.1453 C   0  0  0  0  0  0  0  0  0  0  0  0
   10.2981  -32.9826  -31.7163 O   0  0  0  0  0  0  0  0  0  0  0  0
    7.2564  -34.2627  -33.9877 N   0  0  0  0  0  0  0  0  0  0  0  0
    9.3466  -33.3099  -32.4229 C   0  0  0  0  0  0  0  0  0  0  0  0
    6.5049  -30.9893  -31.2509 C   0  0  0  0  0  0  0  0  0  0  0  0
    6.9882  -33.2723  -33.1056 C   0  0  0  0  0  0  0  0  0  0  0  0
    6.1660  -34.6071  -34.6607 N   0  0  0  0  0  0  0  0  0  0  0  0
    8.4580  -31.6809  -30.0204 C   0  0  0  0  0  0  0  0  0  0  0  0
    8.5428  -34.8039  -34.1804 C   0  0  0  0  0  0  0  0  0  0  0  0
    7.7006  -31.8192  -31.2441 N   0  0  0  0  0  0  0  0  0  0  0  0
    9.4845  -34.2701  -33.3726 N   0  0  0  0  0  0  0  0  0  0  0  0
    5.7045  -32.9926  -33.1954 N   0  0  0  0  0  0  0  0  0  0  0  0
  6  1  1  0
  6  4  2  0
  8  1  1  0
  8  5  1  0
  9  3  2  0
  9  5  1  0
 11  2  2  0
 11  5  1  0
  1 12  1  1
 12  7  1  0
 12 10  1  0
 13  6  1  0
 13 11  1  0
 14  3  1  0
 14  8  2  0
M  END
>  <pic50>  (4) 
3.929203510284424

>  <pki>  (4) 
4.363348960876465

>  <pkd>  (4) 
3.9936609268188477

>  <pec50>  (4) 
5.276158809661865

>  <SA_SCORE>  (4) 
3.951

>  <QED>  (4) 
0.613

>  <VINA_SCORE>  (4) 
-7.520
$$$$
