3rfm_1
     RDKit          3D

 14 15  0  0  0  0  0  0  0  0999 V2000
    8.5616  -31.8784  -30.7796 N   0  0  0  0  0  0  0  0  0  0  0  0
    8.8730  -35.5093  -34.9129 C   0  0  0  0  0  0  0  0  0  0  0  0
    8.7814  -32.7685  -31.7359 C   0  0  0  0  0  0  0  0  0  0  0  0
    6.7157  -32.1883  -31.9510 N   0  0  0  0  0  0  0  0  0  0  0  0
   11.1625  -33.2389  -31.2057 C   0  0  0  0  0  0  0  0  0  0  0  0
    7.6842  -32.9922  -32.4832 C   0  0  0  0  0  0  0  0  0  0  0  0
    7.2932  -31.5285  -30.9294 C   0  0  0  0  0  0  0  0  0  0  0  0
    5.3272  -32.0390  -32.3774 C   0  0  0  0  0  0  0  0  0  0  0  0
    9.9516  -33.4668  -32.0301 N   0  0  0  0  0  0  0  0  0  0  0  0
    6.6346  -34.0997  -34.2202 O   0  0  0  0  0  0  0  0  0  0  0  0
    7.6474  -33.9081  -33.5643 C   0  0  0  0  0  0  0  0  0  0  0  0
    8.8329  -34.5421  -33.7943 N   0  0  0  0  0  0  0  0  0  0  0  0
   11.0155  -34.9617  -33.3393 O   0  0  0  0  0  0  0  0  0  0  0  0
   10.0034  -34.3682  -33.0800 C   0  0  0  0  0  0  0  0  0  0  0  0
  3  1  1  0
  6  3  2  0
  6  4  1  0
  7  1  2  0
  7  4  1  0
  8  4  1  0
  9  3  1  0
  9  5  1  0
 11  6  1  0
 11 10  2  0
 12  2  1  0
 12 11  1  0
 14  9  1  0
 14 12  1  0
 14 13  2  0
M  END
>  <pic50>  (2) 
3.8254799842834473

>  <pki>  (2) 
4.833081245422363

>  <pkd>  (2) 
4.2916178703308105

>  <pec50>  (2) 
5.514920234680176

>  <SA_SCORE>  (2) 
2.298

>  <QED>  (2) 
0.538

>  <VINA_SCORE>  (2) 
-7.420
$$$$
