3rfm_7
     RDKit          3D

 14 15  0  0  0  0  0  0  0  0999 V2000
    8.1020  -32.6194  -32.0520 N   0  0  0  0  0  0  0  0  0  0  0  0
    6.7479  -33.7813  -33.6153 C   0  0  0  0  0  0  0  0  0  0  0  0
    7.7085  -35.8049  -35.4217 Br  0  0  0  0  0  0  0  0  0  0  0  0
    7.9914  -31.6691  -31.1114 N   0  0  0  0  0  0  0  0  0  0  0  0
   10.6188  -33.3882  -30.5588 C   0  0  0  0  0  0  0  0  0  0  0  0
   10.6067  -35.2126  -34.0305 Br  0  0  0  0  0  0  0  0  0  0  0  0
    9.2394  -33.2880  -32.4459 C   0  0  0  0  0  0  0  0  0  0  0  0
    6.7087  -31.3361  -31.0994 N   0  0  0  0  0  0  0  0  0  0  0  0
    9.1013  -34.2326  -33.4467 C   0  0  0  0  0  0  0  0  0  0  0  0
    5.0377  -34.0987  -34.3811 Br  0  0  0  0  0  0  0  0  0  0  0  0
    6.0069  -32.0329  -32.0210 N   0  0  0  0  0  0  0  0  0  0  0  0
    6.8894  -32.8370  -32.6101 C   0  0  0  0  0  0  0  0  0  0  0  0
   10.4474  -33.0168  -31.8887 O   0  0  0  0  0  0  0  0  0  0  0  0
    7.8629  -34.4876  -34.0386 C   0  0  0  0  0  0  0  0  0  0  0  0
  4  1  1  0
  7  1  1  0
  8  4  2  0
  9  6  1  0
  9  7  2  0
 10  2  1  0
 11  8  1  0
 12  1  1  0
 12  2  1  0
 12 11  2  0
 13  5  1  0
 13  7  1  0
 14  2  2  0
 14  3  1  0
 14  9  1  0
M  END
>  <pic50>  (8) 
5.213961601257324

>  <pki>  (8) 
6.856217384338379

>  <pkd>  (8) 
5.797238349914551

>  <pec50>  (8) 
5.592231273651123

>  <SA_SCORE>  (8) 
3.386

>  <QED>  (8) 
0.755

>  <VINA_SCORE>  (8) 
-8.210
$$$$
