1.O
     RDKit          3D

 28 31  0  0  1  0  0  0  0  0999 V2000
   72.5770   86.9300   70.4210 C   0  0  0  0  0  0  0  0  0  0  0  0
   71.0400   86.7930   66.9310 C   0  0  0  0  0  0  0  0  0  0  0  0
   73.6640   86.9930   69.5600 C   0  0  0  0  0  0  0  0  0  0  0  0
   74.9530   87.0200   70.0680 C   0  0  0  0  0  0  0  0  0  0  0  0
   70.4310   86.6770   72.0440 C   0  0  0  0  0  0  0  0  0  0  0  0
   73.3360   87.1250   68.1110 C   0  0  2  0  0  0  0  0  0  0  0  0
   75.6980   86.4020   67.8200 C   0  0  0  0  0  0  0  0  0  0  0  0
   76.1000   87.0950   69.1040 C   0  0  0  0  0  0  0  0  0  0  0  0
   75.3050   87.1740   74.3380 C   0  0  0  0  0  0  0  0  0  0  0  0
   74.5060   87.5780   65.9970 C   0  0  0  0  0  0  0  0  0  0  0  0
   72.1630   86.1880   67.7770 C   0  0  0  0  0  0  0  0  0  0  0  0
   74.5170   87.0450   67.2400 N   0  0  0  0  0  0  0  0  0  0  0  0
   73.5630   84.1710   64.6970 N   0  0  0  0  0  0  0  0  0  0  0  0
   72.7600   86.8540   71.7690 C   0  0  0  0  0  0  0  0  0  0  0  0
   75.1460   86.9480   71.4600 C   0  0  0  0  0  0  0  0  0  0  0  0
   70.4740   85.7350   65.9850 C   0  0  0  0  0  0  0  0  0  0  0  0
   71.5710   84.8630   65.4600 C   0  0  0  0  0  0  0  0  0  0  0  0
   72.8110   85.2520   65.0480 C   0  0  0  0  0  0  0  0  0  0  0  0
   72.8110   83.0390   64.8530 C   0  0  0  0  0  0  0  0  0  0  0  0
   71.5440   83.4310   65.3370 C   0  0  0  0  0  0  0  0  0  0  0  0
   74.0590   86.8630   72.3090 C   0  0  0  0  0  0  0  0  0  0  0  0
   73.1360   81.7100   64.6000 C   0  0  0  0  0  0  0  0  0  0  0  0
   72.1650   80.7720   64.8500 C   0  0  0  0  0  0  0  0  0  0  0  0
   70.9050   81.1320   65.3260 C   0  0  0  0  0  0  0  0  0  0  0  0
   70.5820   82.4460   65.5810 C   0  0  0  0  0  0  0  0  0  0  0  0
   74.0910   86.8170   73.6790 O   0  0  0  0  0  0  0  0  0  0  0  0
   71.7210   86.7790   72.6410 O   0  0  0  0  0  0  0  0  0  0  0  0
   75.5030   87.8720   65.3640 O   0  0  0  0  0  0  0  0  0  0  0  0
  1  3  2  0
  1 14  1  0
  2 11  1  0
  2 16  1  0
  3  4  1  0
  3  6  1  0
  4  8  1  0
  4 15  2  0
  5 27  1  0
  6 11  1  6
  6 12  1  0
  7  8  1  0
  7 12  1  0
  9 26  1  0
 10 12  1  0
 10 28  2  0
 13 18  1  0
 13 19  1  0
 14 21  2  0
 14 27  1  0
 15 21  1  0
 16 17  1  0
 17 18  2  0
 17 20  1  0
 19 20  2  0
 19 22  1  0
 20 25  1  0
 21 26  1  0
 22 23  2  0
 23 24  1  0
 24 25  2  0
M  END
$$$$
