
     RDKit          3D

 14 15  0  0  0  0  0  0  0  0999 V2000
   45.5296  -30.4830  -41.9297 C   0  0  0  0  0  0  0  0  0  0  0  0
   45.1616  -31.6230  -40.9804 C   0  0  0  0  0  0  0  0  0  0  0  0
   46.1111  -29.0434  -45.5561 C   0  0  0  0  0  0  0  0  0  0  0  0
   45.8374  -31.8782  -44.0253 C   0  0  0  0  0  0  0  0  0  0  0  0
   44.9778  -29.3750  -48.1829 C   0  0  0  0  0  0  0  0  0  0  0  0
   45.5675  -30.3991  -46.0383 C   0  0  0  0  0  0  0  0  0  0  0  0
   44.6303  -30.2070  -47.1959 C   0  0  0  0  0  0  0  0  0  0  0  0
   44.8517  -31.1286  -44.9126 C   0  0  0  0  0  0  0  0  0  0  0  0
   46.5046  -28.0798  -46.6966 C   0  0  0  0  0  0  0  0  0  0  0  0
   46.4198  -32.2105  -40.3508 C   0  0  0  0  0  0  0  0  0  0  0  0
   47.7392  -31.6121  -42.3942 C   0  0  0  0  0  0  0  0  0  0  0  0
   47.3484  -32.7395  -41.4383 C   0  0  0  0  0  0  0  0  0  0  0  0
   46.2947  -28.6581  -48.1028 C   0  0  0  0  0  0  0  0  0  0  0  0
   46.5073  -30.9487  -43.0163 C   0  0  0  0  0  0  0  0  0  0  0  0
  1  2  1  0
  2 10  1  0
  4 14  1  0
  5 13  1  0
  5  7  2  0
  6  3  1  0
  6  8  1  0
  7  6  1  0
  8  4  1  0
  9  3  1  0
 11 12  1  0
 12 10  1  0
 13  9  1  0
 14  1  1  0
 14 11  1  0
M  END
$$$$

     RDKit          3D

 17 19  0  0  0  0  0  0  0  0999 V2000
   37.0512  -30.2695  -44.4057 C   0  0  0  0  0  0  0  0  0  0  0  0
   39.1375  -27.8500  -46.3858 C   0  0  0  0  0  0  0  0  0  0  0  0
   37.9250  -31.1953  -46.4147 C   0  0  0  0  0  0  0  0  0  0  0  0
   40.7964  -29.6684  -46.6734 C   0  0  0  0  0  0  0  0  0  0  0  0
   41.8570  -30.3687  -45.8456 C   0  0  0  0  0  0  0  0  0  0  0  0
   36.4212  -31.0819  -46.3904 C   0  0  0  0  0  0  0  0  0  0  0  0
   40.5498  -28.2766  -46.1160 C   0  0  0  0  0  0  0  0  0  0  0  0
   40.5321  -31.5669  -43.9818 C   0  0  0  0  0  0  0  0  0  0  0  0
   40.9009  -30.3836  -43.0964 C   0  0  0  0  0  0  0  0  0  0  0  0
   38.0883  -28.3173  -45.6958 C   0  0  0  0  0  0  0  0  0  0  0  0
   36.0838  -30.1282  -45.4201 O   0  0  0  0  0  0  0  0  0  0  0  0
   39.0215  -31.7667  -44.1266 C   0  0  0  0  0  0  0  0  0  0  0  0
   41.2311  -29.5786  -48.1262 C   0  0  0  0  0  0  0  0  0  0  0  0
   41.3305  -31.6913  -45.2894 C   0  0  0  0  0  0  0  0  0  0  0  0
   41.1920  -30.8432  -48.7142 O   0  0  0  0  0  0  0  0  0  0  0  0
   38.3442  -30.7499  -45.0362 C   0  0  0  0  0  0  0  0  0  0  0  0
   38.2265  -29.3008  -44.5598 C   0  0  0  0  0  0  0  0  0  0  0  0
  1 11  1  0
  1 17  1  0
  1 16  1  0
  2 10  2  0
  4 13  1  0
  4  5  1  0
  6  3  1  0
  6 11  1  0
  7  4  1  0
  7  2  1  0
  8 12  1  0
  8  9  1  0
 14  5  1  0
 14  8  1  0
 15 13  1  0
 16  3  1  0
 16 12  1  0
 17 10  1  0
 17 16  1  0
M  END
$$$$

     RDKit          3D

 11 11  0  0  0  0  0  0  0  0999 V2000
   45.0902  -29.8656  -45.6007 C   0  0  0  0  0  0  0  0  0  0  0  0
   43.3018  -31.3078  -43.8872 C   0  0  0  0  0  0  0  0  0  0  0  0
   42.7411  -30.4337  -44.9785 C   0  0  0  0  0  0  0  0  0  0  0  0
   46.6335  -27.1626  -45.3353 C   0  0  0  0  0  0  0  0  0  0  0  0
   45.0305  -32.0850  -42.4975 O   0  0  0  0  0  0  0  0  0  0  0  0
   45.9673  -27.7382  -46.5708 C   0  0  0  0  0  0  0  0  0  0  0  0
   46.0559  -29.2581  -46.5727 C   0  0  0  0  0  0  0  0  0  0  0  0
   44.5949  -31.3001  -43.5588 C   0  0  0  0  0  0  0  0  0  0  0  0
   43.7912  -29.8958  -45.9157 C   0  0  0  0  0  0  0  0  0  0  0  0
   45.5521  -30.4896  -44.3381 C   0  0  0  0  0  0  0  0  0  0  0  0
   47.1285  -30.4234  -43.8847 S   0  0  0  0  0  0  0  0  0  0  0  0
  1 10  1  0
  2  8  2  0
  3  2  1  0
  6  7  1  0
  6  4  1  0
  7  1  1  0
  8  5  1  0
  9  1  2  0
  9  3  1  0
 10 11  2  0
 10  8  1  0
M  END
$$$$

     RDKit          3D

 20 21  0  0  0  0  0  0  0  0999 V2000
   41.0700  -30.0382  -43.5594 C   0  0  0  0  0  0  0  0  0  0  0  0
   48.5037  -29.7278  -41.4315 C   0  0  0  0  0  0  0  0  0  0  0  0
   47.9491  -31.9251  -41.9805 C   0  0  0  0  0  0  0  0  0  0  0  0
   38.9210  -29.4844  -46.0637 C   0  0  0  0  0  0  0  0  0  0  0  0
   44.1003  -31.2866  -43.9536 O   0  0  0  0  0  0  0  0  0  0  0  0
   42.0514  -30.8579  -42.7292 C   0  0  0  0  0  0  0  0  0  0  0  0
   38.3875  -28.3858  -46.9836 C   0  0  0  0  0  0  0  0  0  0  0  0
   46.7527  -31.3223  -41.2544 C   0  0  0  0  0  0  0  0  0  0  0  0
   38.6396  -30.8175  -46.7343 C   0  0  0  0  0  0  0  0  0  0  0  0
   45.4758  -31.5402  -42.0061 C   0  0  0  0  0  0  0  0  0  0  0  0
   40.4348  -29.3069  -45.8691 C   0  0  0  0  0  0  0  0  0  0  0  0
   40.5920  -31.2377  -42.7493 C   0  0  0  0  0  0  0  0  0  0  0  0
   41.0885  -30.4063  -45.0365 C   0  0  0  0  0  0  0  0  0  0  0  0
   47.0628  -29.8404  -41.0827 C   0  0  0  0  0  0  0  0  0  0  0  0
   38.5971  -26.9841  -46.4243 C   0  0  0  0  0  0  0  0  0  0  0  0
   48.9853  -30.8607  -41.9194 C   0  0  0  0  0  0  0  0  0  0  0  0
   42.9484  -31.9039  -43.3867 C   0  0  0  0  0  0  0  0  0  0  0  0
   42.4723  -30.2444  -41.4093 C   0  0  0  0  0  0  0  0  0  0  0  0
   45.2925  -31.0900  -43.2484 C   0  0  0  0  0  0  0  0  0  0  0  0
   38.1803  -29.4451  -44.7340 C   0  0  0  0  0  0  0  0  0  0  0  0
  1 13  1  0
  1 12  1  0
  1  6  1  0
  3  8  1  0
  3 16  1  0
  4 20  1  0
  5 17  1  0
  5 19  1  0
  6 17  1  0
  6 18  1  0
  7  4  1  0
  8 10  1  0
  8 14  1  0
  9  4  1  0
 11  4  1  0
 11 13  1  0
 12  6  1  0
 14  2  1  0
 15  7  1  0
 16  2  2  0
 19 10  2  3
M  END
$$$$

     RDKit          3D

 17 18  0  0  0  0  0  0  0  0999 V2000
   43.2118  -31.5864  -44.4637 C   0  0  0  0  0  0  0  0  0  0  0  0
   45.8510  -33.7233  -41.5844 C   0  0  0  0  0  0  0  0  0  0  0  0
   45.4747  -30.9535  -41.6697 C   0  0  0  0  0  0  0  0  0  0  0  0
   39.1858  -28.7337  -44.5219 C   0  0  0  0  0  0  0  0  0  0  0  0
   46.2011  -32.9358  -40.4836 C   0  0  0  0  0  0  0  0  0  0  0  0
   45.3109  -33.1266  -42.7275 C   0  0  0  0  0  0  0  0  0  0  0  0
   43.3471  -30.1903  -43.8619 C   0  0  0  0  0  0  0  0  0  0  0  0
   45.4906  -30.8270  -45.0946 N   0  0  0  0  0  0  0  0  0  0  0  0
   37.2579  -29.6507  -46.0291 C   0  0  0  0  0  0  0  0  0  0  0  0
   46.0148  -31.5510  -40.5270 C   0  0  0  0  0  0  0  0  0  0  0  0
   40.4968  -29.2084  -45.0583 C   0  0  0  0  0  0  0  0  0  0  0  0
   43.2142  -28.9458  -45.1891 S   0  0  0  0  0  0  0  0  0  0  0  0
   41.6277  -28.3232  -44.5639 C   0  0  0  0  0  0  0  0  0  0  0  0
   45.1101  -31.7401  -42.7704 C   0  0  0  0  0  0  0  0  0  0  0  0
   37.9741  -28.0289  -45.6374 S   0  0  0  0  0  0  0  0  0  0  0  0
   44.5654  -31.0954  -44.0041 C   0  0  0  0  0  0  0  0  0  0  0  0
   38.8888  -28.8859  -43.2323 C   0  0  0  0  0  0  0  0  0  0  0  0
  1  7  1  0
  1 16  1  0
  2  5  4  0
  3 10  4  0
  4 17  2  0
  6  2  4  0
  7 12  1  0
  7 16  1  0
  9 15  1  0
 10  5  4  0
 11 13  1  0
 11  4  1  0
 13 12  1  0
 14  3  4  0
 14  6  4  0
 15  4  1  0
 16  8  1  0
 16 14  1  0
M  END
$$$$

     RDKit          3D

  8  8  0  0  0  0  0  0  0  0999 V2000
   37.7669  -28.7961  -46.8760 C   0  0  0  0  0  0  0  0  0  0  0  0
   35.6093  -30.8917  -47.1275 C   0  0  0  0  0  0  0  0  0  0  0  0
   36.8066  -29.1569  -45.7342 C   0  0  0  0  0  0  0  0  0  0  0  0
   35.4579  -29.6268  -46.2714 C   0  0  0  0  0  0  0  0  0  0  0  0
   36.9604  -30.9857  -47.8497 C   0  0  0  0  0  0  0  0  0  0  0  0
   37.5222  -29.5980  -48.1621 C   0  0  0  0  0  0  0  0  0  0  0  0
   38.8184  -29.7062  -48.9450 C   0  0  0  0  0  0  0  0  0  0  0  0
   38.5384  -30.1036  -50.3821 C   0  0  0  0  0  0  0  0  0  0  0  0
  1  3  1  0
  2  4  1  0
  4  3  1  0
  5  6  1  0
  5  2  1  0
  6  1  1  0
  7  6  1  0
  8  7  1  0
M  END
$$$$

     RDKit          3D

 11 11  0  0  0  0  0  0  0  0999 V2000
   46.9288  -31.2807  -42.1413 C   0  0  0  0  0  0  0  0  0  0  0  0
   44.7209  -28.6861  -43.4492 C   0  0  0  0  0  0  0  0  0  0  0  0
   45.5349  -31.6054  -44.1329 C   0  0  0  0  0  0  0  0  0  0  0  0
   46.8475  -28.9420  -44.8836 C   0  0  0  0  0  0  0  0  0  0  0  0
   46.1377  -29.2765  -43.5620 C   0  0  0  0  0  0  0  0  0  0  0  0
   44.9362  -27.4742  -45.6590 C   0  0  0  0  0  0  0  0  0  0  0  0
   44.0979  -28.4511  -44.8235 C   0  0  0  0  0  0  0  0  0  0  0  0
   46.1412  -30.7545  -43.3000 C   0  0  0  0  0  0  0  0  0  0  0  0
   46.4437  -27.5569  -45.3788 C   0  0  0  0  0  0  0  0  0  0  0  0
   46.0208  -31.8798  -41.0775 C   0  0  0  0  0  0  0  0  0  0  0  0
   45.1924  -30.5648  -40.1352 S   0  0  0  0  0  0  0  0  0  0  0  0
  1 10  1  0
  4  5  1  0
  5  2  1  0
  5  8  1  0
  6  7  1  0
  6  9  1  0
  7  2  1  0
  8  1  1  0
  8  3  2  0
  9  4  1  0
 10 11  1  0
M  END
$$$$

     RDKit          3D

 20 24  0  0  0  0  0  0  0  0999 V2000
   45.8390  -31.9224  -48.5516 C   0  0  0  0  0  0  0  0  0  0  0  0
   42.8432  -34.0348  -40.4725 C   0  0  0  0  0  0  0  0  0  0  0  0
   47.1652  -33.5401  -46.3694 C   0  0  0  0  0  0  0  0  0  0  0  0
   39.5016  -31.7918  -41.7863 O   0  0  0  0  0  0  0  0  0  0  0  0
   45.9466  -32.5952  -46.3465 C   0  0  0  0  0  0  0  0  0  0  0  0
   41.7145  -33.1072  -40.0624 C   0  0  0  0  0  0  0  0  0  0  0  0
   46.5776  -33.1871  -45.0744 C   0  0  0  0  0  0  0  0  0  0  0  0
   46.0291  -31.1716  -45.8815 C   0  0  0  0  0  0  0  0  0  0  0  0
   41.6918  -31.8366  -42.7541 C   0  0  0  0  0  0  0  0  0  0  0  0
   40.4975  -32.6487  -42.2582 C   0  0  0  0  0  0  0  0  0  0  0  0
   43.6809  -31.1846  -44.9391 C   0  0  0  0  0  0  0  0  0  0  0  0
   42.5006  -30.2854  -44.5897 C   0  0  0  0  0  0  0  0  0  0  0  0
   42.9139  -29.1889  -43.6201 C   0  0  0  0  0  0  0  0  0  0  0  0
   41.3319  -31.0971  -44.0372 C   0  0  0  0  0  0  0  0  0  0  0  0
   44.6713  -30.4716  -45.8532 C   0  0  0  0  0  0  0  0  0  0  0  0
   46.5595  -31.4836  -47.2622 C   0  0  0  0  0  0  0  0  0  0  0  0
   45.7083  -30.5219  -48.1371 C   0  0  0  0  0  0  0  0  0  0  0  0
   44.0243  -30.3059  -47.5203 S   0  0  0  0  0  0  0  0  0  0  0  0
   40.8487  -33.6778  -41.1727 C   0  0  0  0  0  0  0  0  0  0  0  0
   41.9832  -34.5947  -41.5906 C   0  0  0  0  0  0  0  0  0  0  0  0
  2  6  1  0
  5  7  1  0
  5  3  1  0
  7  3  1  0
  8 15  1  0
  8  5  1  0
  9 10  1  0
 10  4  1  0
 10 19  1  0
 11 12  1  0
 12 13  1  0
 14  9  1  0
 14 12  1  0
 15 11  1  0
 16  1  1  0
 16  8  1  0
 16  5  1  0
 17  1  1  0
 17 18  1  0
 17 16  1  0
 18 15  1  0
 19  6  1  0
 20 19  1  0
 20  2  1  0
M  END
$$$$

     RDKit          3D

 18 20  0  0  0  0  0  0  0  0999 V2000
   44.3469  -34.2477  -44.3652 F   0  0  0  0  0  0  0  0  0  0  0  0
   43.0276  -31.4371  -43.2423 C   0  0  0  0  0  0  0  0  0  0  0  0
   41.3399  -30.2649  -47.2977 C   0  0  0  0  0  0  0  0  0  0  0  0
   44.4831  -32.9163  -44.0090 C   0  0  0  0  0  0  0  0  0  0  0  0
   39.6735  -29.8008  -42.9171 C   0  0  0  0  0  0  0  0  0  0  0  0
   45.5719  -32.3642  -44.6609 F   0  0  0  0  0  0  0  0  0  0  0  0
   38.8198  -28.6912  -42.5122 N   0  0  0  0  0  0  0  0  0  0  0  0
   43.3663  -29.9818  -43.5519 C   0  0  0  0  0  0  0  0  0  0  0  0
   38.6190  -29.1388  -45.5361 S   0  0  0  0  0  0  0  0  0  0  0  0
   41.1303  -30.7426  -41.2710 F   0  0  0  0  0  0  0  0  0  0  0  0
   41.0955  -29.8889  -42.3641 C   0  0  0  0  0  0  0  0  0  0  0  0
   41.1204  -30.5302  -44.8286 C   0  0  0  0  0  0  0  0  0  0  0  0
   43.3245  -32.2183  -44.3652 O   0  0  0  0  0  0  0  0  0  0  0  0
   38.9838  -31.0349  -43.4882 C   0  0  0  0  0  0  0  0  0  0  0  0
   41.6952  -29.6647  -45.9511 C   0  0  0  0  0  0  0  0  0  0  0  0
   39.7204  -30.0736  -44.4135 C   0  0  0  0  0  0  0  0  0  0  0  0
   37.9709  -29.1622  -41.5642 O   0  0  0  0  0  0  0  0  0  0  0  0
   41.9200  -30.4237  -43.5277 C   0  0  0  0  0  0  0  0  0  0  0  0
  1  4  1  0
  2 13  1  0
  3 15  1  0
  4 13  1  0
  5 14  1  0
  5  7  1  0
  5 11  1  0
  6  4  1  0
  7 17  1  0
  8  2  1  0
 11 10  1  0
 12 15  1  0
 12 16  1  0
 12 18  1  0
 16  9  1  0
 16  5  1  0
 16 14  1  0
 18  8  1  0
 18  2  1  0
 18 11  1  0
M  END
$$$$

     RDKit          3D

 10 10  0  0  0  0  0  0  0  0999 V2000
   47.6719  -32.7947  -48.5353 Cl  0  0  0  0  0  0  0  0  0  0  0  0
   46.8546  -30.9428  -46.6570 C   0  0  0  0  0  0  0  0  0  0  0  0
   46.0207  -29.1833  -45.0376 C   0  0  0  0  0  0  0  0  0  0  0  0
   46.8535  -30.3766  -45.3670 C   0  0  0  0  0  0  0  0  0  0  0  0
   46.0074  -30.3496  -47.7390 C   0  0  0  0  0  0  0  0  0  0  0  0
   47.6450  -30.9327  -44.3605 C   0  0  0  0  0  0  0  0  0  0  0  0
   48.4500  -32.6198  -45.8980 C   0  0  0  0  0  0  0  0  0  0  0  0
   49.3135  -33.8114  -46.1352 C   0  0  0  0  0  0  0  0  0  0  0  0
   48.4388  -32.0481  -44.6245 C   0  0  0  0  0  0  0  0  0  0  0  0
   47.6575  -32.0710  -46.9239 C   0  0  0  0  0  0  0  0  0  0  0  0
  1 10  1  0
  2  4  4  0
  4  3  1  0
  4  6  4  0
  5  2  1  0
  7  9  4  0
  8  7  1  0
  9  6  4  0
 10  2  4  0
 10  7  4  0
M  END
$$$$
