REMARK  Name = 3rfm_2
REMARK  1 active torsions:
REMARK  status: ('A' for Active; 'I' for Inactive)
REMARK    1  A    between atoms: N_5  and  C_11
REMARK                            x       y       z     vdW  Elec       q    Type
REMARK                         _______ _______ _______ _____ _____    ______ ____
ROOT
ATOM      1  C   UNL     1       9.220 -34.563 -32.891  0.00  0.00    +0.000 A 
ATOM      2  O   UNL     1      10.150 -35.334 -33.028  0.00  0.00    +0.000 OA
ATOM      3  O   UNL     1       8.194 -31.815 -30.862  0.00  0.00    +0.000 OA
ATOM      4  N   UNL     1       9.199 -33.603 -31.891  0.00  0.00    +0.000 N 
ATOM      5  N   UNL     1       5.872 -33.796 -34.230  0.00  0.00    +0.000 NA
ATOM      6  C   UNL     1       7.035 -33.816 -33.569  0.00  0.00    +0.000 A 
ATOM      7  C   UNL     1       8.110 -35.663 -34.805  0.00  0.00    +0.000 C 
ATOM      8  C   UNL     1       7.069 -32.850 -32.605  0.00  0.00    +0.000 A 
ATOM      9  N   UNL     1       8.116 -34.658 -33.733  0.00  0.00    +0.000 N 
ATOM     10  C   UNL     1       8.187 -32.696 -31.727  0.00  0.00    +0.000 A 
ATOM     11  N   UNL     1       5.880 -32.207 -32.672  0.00  0.00    +0.000 NA
ATOM     12  C   UNL     1       5.181 -32.812 -33.651  0.00  0.00    +0.000 A 
ENDROOT
BRANCH   4  14
ATOM     13  C   UNL     1      11.624 -33.107 -31.419  0.00  0.00    +0.000 C 
ATOM     14  C   UNL     1      10.290 -33.601 -30.916  0.00  0.00    +0.000 C 
ENDBRANCH   4  14
TORSDOF 1
