REMARK  Name = 3rfm_8
REMARK  1 active torsions:
REMARK  status: ('A' for Active; 'I' for Inactive)
REMARK    1  A    between atoms: C_1  and  N_3
REMARK                            x       y       z     vdW  Elec       q    Type
REMARK                         _______ _______ _______ _____ _____    ______ ____
ROOT
ATOM      1  N   UNL     1       5.935 -31.918 -32.058  0.00  0.00    +0.000 NA
ATOM      2  N   UNL     1       9.485 -33.670 -32.842  0.00  0.00    +0.000 N 
ATOM      3  C   UNL     1       8.357 -32.983 -32.467  0.00  0.00    +0.000 A 
ATOM      4  N   UNL     1       4.955 -33.274 -33.687  0.00  0.00    +0.000 NA
ATOM      5  N   UNL     1       7.809 -34.459 -34.018  0.00  0.00    +0.000 N 
ATOM      6  N   UNL     1       8.250 -32.007 -31.536  0.00  0.00    +0.000 NA
ATOM      7  C   UNL     1       7.309 -33.463 -33.207  0.00  0.00    +0.000 A 
ATOM      8  C   UNL     1       7.024 -31.517 -31.384  0.00  0.00    +0.000 A 
ATOM      9  C   UNL     1       9.141 -34.569 -33.786  0.00  0.00    +0.000 A 
ATOM     10  O   UNL     1       9.917 -35.364 -34.343  0.00  0.00    +0.000 OA
ATOM     11  C   UNL     1       7.082 -35.271 -34.996  0.00  0.00    +0.000 C 
ATOM     12  C   UNL     1       6.064 -32.894 -33.001  0.00  0.00    +0.000 A 
ENDROOT
BRANCH   2  13
ATOM     13  C   UNL     1      10.858 -33.450 -32.352  0.00  0.00    +0.000 C 
ATOM     14  C   UNL     1      11.037 -33.801 -30.899  0.00  0.00    +0.000 C 
ENDBRANCH   2  13
TORSDOF 1
