REMARK  Name = 3rfm_6
REMARK  0 active torsions:
REMARK  status: ('A' for Active; 'I' for Inactive)
REMARK                            x       y       z     vdW  Elec       q    Type
REMARK                         _______ _______ _______ _____ _____    ______ ____
ROOT
ATOM      1  N   UNL     1       7.128 -33.576 -33.324  0.00  0.00    +0.000 N 
ATOM      2  C   UNL     1       7.820 -32.009 -31.213  0.00  0.00    +0.000 A 
ATOM      3  O   UNL     1       5.061 -32.604 -33.346  0.00  0.00    +0.000 OA
ATOM      4  C   UNL     1       8.109 -35.026 -34.495  0.00  0.00    +0.000 A 
ATOM      5  C   UNL     1       9.037 -34.599 -33.554  0.00  0.00    +0.000 A 
ATOM      6  O   UNL     1       8.049 -31.299 -30.237  0.00  0.00    +0.000 OA
ATOM      7  C   UNL     1       8.383 -33.676 -32.803  0.00  0.00    +0.000 A 
ATOM      8 CL   UNL     1      10.684 -35.173 -33.422  0.00  0.00    +0.000 Cl
ATOM      9  C   UNL     1       8.336 -36.057 -35.557  0.00  0.00    +0.000 C 
ATOM     10  N   UNL     1       6.608 -31.925 -31.814  0.00  0.00    +0.000 NA
ATOM     11  C   UNL     1      10.041 -33.074 -31.020  0.00  0.00    +0.000 C 
ATOM     12  N   UNL     1       6.950 -34.404 -34.358  0.00  0.00    +0.000 NA
ATOM     13  C   UNL     1       6.195 -32.684 -32.854  0.00  0.00    +0.000 A 
ATOM     14  N   UNL     1       8.742 -32.927 -31.701  0.00  0.00    +0.000 N 
ENDROOT
TORSDOF 0
