REMARK  Name = 3rfm_7
REMARK  1 active torsions:
REMARK  status: ('A' for Active; 'I' for Inactive)
REMARK    1  A    between atoms: C_7  and  O_13
REMARK                            x       y       z     vdW  Elec       q    Type
REMARK                         _______ _______ _______ _____ _____    ______ ____
ROOT
ATOM      1  N   UNL     1       8.102 -32.619 -32.052  0.00  0.00    +0.000 N 
ATOM      2  C   UNL     1       6.748 -33.781 -33.615  0.00  0.00    +0.000 A 
ATOM      3 BR   UNL     1       7.708 -35.805 -35.422  0.00  0.00    +0.000 Br
ATOM      4  N   UNL     1       7.991 -31.669 -31.111  0.00  0.00    +0.000 NA
ATOM      5 BR   UNL     1      10.607 -35.213 -34.031  0.00  0.00    +0.000 Br
ATOM      6  C   UNL     1       9.239 -33.288 -32.446  0.00  0.00    +0.000 A 
ATOM      7  N   UNL     1       6.709 -31.336 -31.099  0.00  0.00    +0.000 NA
ATOM      8  C   UNL     1       9.101 -34.233 -33.447  0.00  0.00    +0.000 A 
ATOM      9 BR   UNL     1       5.038 -34.099 -34.381  0.00  0.00    +0.000 Br
ATOM     10  N   UNL     1       6.007 -32.033 -32.021  0.00  0.00    +0.000 NA
ATOM     11  C   UNL     1       6.889 -32.837 -32.610  0.00  0.00    +0.000 A 
ATOM     12  C   UNL     1       7.863 -34.488 -34.039  0.00  0.00    +0.000 A 
ENDROOT
BRANCH   6  14
ATOM     13  C   UNL     1      10.619 -33.388 -30.559  0.00  0.00    +0.000 C 
ATOM     14  O   UNL     1      10.447 -33.017 -31.889  0.00  0.00    +0.000 OA
ENDBRANCH   6  14
TORSDOF 1
